CHEMBL4228183
 OpenBabel10172500233D

 24 24  0  0  0  0  0  0  0  0999 V2000
  135.2830  135.9210  153.1800 C   0  0  0  0  0  0  0  0  0  0  0  0
  134.2960  136.3650  153.7630 O   0  0  0  0  0  0  0  0  0  0  0  0
  135.2310  134.8310  152.3390 N   0  0  0  0  0  0  0  0  0  0  0  0
  136.0600  134.5230  151.9060 H   0  0  0  0  0  0  0  0  0  0  0  0
  136.6700  136.5510  153.3530 C   0  0  0  0  0  2  0  0  0  0  0  0
  137.0370  136.7180  154.7250 O   0  0  0  0  0  0  0  0  0  0  0  0
  137.6020  137.9180  154.9990 C   0  0  0  0  0  0  0  0  0  0  0  0
  137.0000  138.9500  155.2590 O   0  0  0  0  0  0  0  0  0  0  0  0
  139.7090  138.0850  153.7750 C   0  0  0  0  0  3  0  0  0  0  0  0
  139.0740  137.7880  154.9180 C   0  0  0  0  0  3  0  0  0  0  0  0
  143.2010  137.5060  152.2750 C   0  0  0  0  0  1  0  0  0  0  0  0
  141.7200  137.5970  152.4660 C   0  0  0  0  0  3  0  0  0  0  0  0
  141.1450  137.9970  153.6110 C   0  0  0  0  0  3  0  0  0  0  0  0
  133.9940  134.1200  152.0710 C   0  0  0  0  0  2  0  0  0  0  0  0
  133.7840  133.8770  150.5970 C   0  0  0  0  0  0  0  0  0  0  0  0
  134.1310  132.6510  150.0220 C   0  0  0  0  0  3  0  0  0  0  0  0
  133.9610  132.4350  148.6530 C   0  0  0  0  0  3  0  0  0  0  0  0
  133.4450  133.4470  147.8350 C   0  0  0  0  0  0  0  0  0  0  0  0
  133.1030  134.6880  148.3810 C   0  0  0  0  0  0  0  0  0  0  0  0
  133.2800  134.8880  149.7610 C   0  0  0  0  0  3  0  0  0  0  0  0
  133.2920  133.1810  146.5030 O   0  0  0  0  0  0  0  0  0  0  0  0
  133.9460  133.4580  145.8910 H   0  0  0  0  0  0  0  0  0  0  0  0
  132.6010  135.7890  147.7390 O   0  0  0  0  0  0  0  0  0  0  0  0
  132.8290  137.0660  148.3200 C   0  0  0  0  0  1  0  0  0  0  0  0
  1  5  1  0  0  0  0
  1  2  2  0  0  0  0
  3  1  1  0  0  0  0
  4  3  1  0  0  0  0
  5  6  1  0  0  0  0
  6  7  1  0  0  0  0
  7  8  2  0  0  0  0
  9 10  2  0  0  0  0
 10  7  1  0  0  0  0
 11 12  1  0  0  0  0
 12 13  2  0  0  0  0
 13  9  1  0  0  0  0
 14  3  1  0  0  0  0
 15 14  1  0  0  0  0
 16 15  1  0  0  0  0
 17 16  2  0  0  0  0
 18 19  2  0  0  0  0
 18 17  1  0  0  0  0
 19 20  1  0  0  0  0
 20 15  2  0  0  0  0
 21 18  1  0  0  0  0
 22 21  1  0  0  0  0
 23 24  1  0  0  0  0
 23 19  1  0  0  0  0
M  END
>  <MODEL>
1

>  <REMARK>
 VINA RESULT:    -6.793      0.000      0.000
 INTER + INTRA:         -10.771
 INTER:                 -10.424
 INTRA:                  -0.348
 UNBOUND:                -0.603
  Name = CHEMBL4228183
  11 active torsions:
  status: ('A' for Active; 'I' for Inactive)
    1  A    between atoms: C_1  and  C_2
    2  A    between atoms: C_3  and  C_4
    3  A    between atoms: C_5  and  C_6
    4  A    between atoms: C_6  and  O_8
    5  A    between atoms: O_8  and  C_9
    6  A    between atoms: C_9  and  C_10
    7  A    between atoms: N_12  and  C_13
    8  A    between atoms: C_13  and  C_14
    9  A    between atoms: C_17  and  O_18
   10  A    between atoms: C_19  and  O_20
   11  A    between atoms: O_20  and  C_21
                            x       y       z     vdW  Elec       q    Type
                         _______ _______ _______ _____ _____    ______ ____

>  <TORSDO>
F 9

>  <SCORE>
-6.793

>  <RMSD_LB>
0.000

>  <RMSD_UB>
0.000

$$$$
CHEMBL4228183
 OpenBabel10172500233D

 24 24  0  0  0  0  0  0  0  0999 V2000
  145.4050  140.4190  148.9700 C   0  0  0  0  0  0  0  0  0  0  0  0
  146.4450  139.9860  148.4790 O   0  0  0  0  0  0  0  0  0  0  0  0
  145.3440  141.5940  149.6870 N   0  0  0  0  0  0  0  0  0  0  0  0
  144.4780  141.8820  150.0580 H   0  0  0  0  0  0  0  0  0  0  0  0
  144.0760  139.6680  148.8260 C   0  0  0  0  0  2  0  0  0  0  0  0
  143.5170  139.2810  150.0840 O   0  0  0  0  0  0  0  0  0  0  0  0
  143.7040  137.9740  150.3880 C   0  0  0  0  0  0  0  0  0  0  0  0
  144.4560  137.2050  149.8070 O   0  0  0  0  0  0  0  0  0  0  0  0
  141.5730  138.0690  151.5780 C   0  0  0  0  0  3  0  0  0  0  0  0
  142.8350  137.6170  151.5310 C   0  0  0  0  0  3  0  0  0  0  0  0
  138.3900  137.8020  153.7170 C   0  0  0  0  0  1  0  0  0  0  0  0
  139.3590  138.1180  152.6220 C   0  0  0  0  0  3  0  0  0  0  0  0
  140.6520  137.7600  152.6510 C   0  0  0  0  0  3  0  0  0  0  0  0
  146.5150  142.4210  149.9150 C   0  0  0  0  0  2  0  0  0  0  0  0
  147.1590  142.1410  151.2500 C   0  0  0  0  0  0  0  0  0  0  0  0
  148.5470  142.2240  151.4010 C   0  0  0  0  0  3  0  0  0  0  0  0
  149.1460  141.9390  152.6310 C   0  0  0  0  0  3  0  0  0  0  0  0
  148.3640  141.5610  153.7280 C   0  0  0  0  0  0  0  0  0  0  0  0
  146.9760  141.4560  153.6020 C   0  0  0  0  0  0  0  0  0  0  0  0
  146.3890  141.7460  152.3570 C   0  0  0  0  0  3  0  0  0  0  0  0
  149.0000  141.3000  154.9110 O   0  0  0  0  0  0  0  0  0  0  0  0
  149.6910  141.8600  155.2040 H   0  0  0  0  0  0  0  0  0  0  0  0
  146.0610  141.0910  154.5540 O   0  0  0  0  0  0  0  0  0  0  0  0
  145.3460  139.8770  154.3680 C   0  0  0  0  0  1  0  0  0  0  0  0
  1  3  1  0  0  0  0
  2  1  2  0  0  0  0
  3 14  1  0  0  0  0
  3  4  1  0  0  0  0
  5  1  1  0  0  0  0
  5  6  1  0  0  0  0
  6  7  1  0  0  0  0
  7 10  1  0  0  0  0
  8  7  2  0  0  0  0
  9 13  1  0  0  0  0
 10  9  2  0  0  0  0
 12 13  2  0  0  0  0
 12 11  1  0  0  0  0
 14 15  1  0  0  0  0
 15 16  2  0  0  0  0
 15 20  1  0  0  0  0
 16 17  1  0  0  0  0
 17 18  2  0  0  0  0
 18 21  1  0  0  0  0
 19 18  1  0  0  0  0
 19 23  1  0  0  0  0
 20 19  2  0  0  0  0
 21 22  1  0  0  0  0
 24 23  1  0  0  0  0
M  END
>  <MODEL>
2

>  <REMARK>
 VINA RESULT:    -6.368      7.343     12.833
 INTER + INTRA:         -10.136
 INTER:                  -9.400
 INTRA:                  -0.736
 UNBOUND:                -0.603
  Name = CHEMBL4228183
  11 active torsions:
  status: ('A' for Active; 'I' for Inactive)
    1  A    between atoms: C_1  and  C_2
    2  A    between atoms: C_3  and  C_4
    3  A    between atoms: C_5  and  C_6
    4  A    between atoms: C_6  and  O_8
    5  A    between atoms: O_8  and  C_9
    6  A    between atoms: C_9  and  C_10
    7  A    between atoms: N_12  and  C_13
    8  A    between atoms: C_13  and  C_14
    9  A    between atoms: C_17  and  O_18
   10  A    between atoms: C_19  and  O_20
   11  A    between atoms: O_20  and  C_21
                            x       y       z     vdW  Elec       q    Type
                         _______ _______ _______ _____ _____    ______ ____

>  <TORSDO>
F 9

>  <SCORE>
-6.368

>  <RMSD_LB>
7.343

>  <RMSD_UB>
12.833

$$$$
CHEMBL4228183
 OpenBabel10172500233D

 24 24  0  0  0  0  0  0  0  0999 V2000
  136.4720  136.0100  147.6240 C   0  0  0  0  0  0  0  0  0  0  0  0
  136.1870  137.2030  147.7050 O   0  0  0  0  0  0  0  0  0  0  0  0
  137.0310  135.2990  148.6640 N   0  0  0  0  0  0  0  0  0  0  0  0
  137.2400  134.3460  148.5310 H   0  0  0  0  0  0  0  0  0  0  0  0
  136.2320  135.2120  146.3370 C   0  0  0  0  0  2  0  0  0  0  0  0
  135.6610  133.9250  146.5800 O   0  0  0  0  0  0  0  0  0  0  0  0
  135.1680  133.3250  145.4700 C   0  0  0  0  0  0  0  0  0  0  0  0
  134.0380  132.8780  145.3410 O   0  0  0  0  0  0  0  0  0  0  0  0
  136.4450  132.1480  143.7530 C   0  0  0  0  0  3  0  0  0  0  0  0
  136.2250  133.2810  144.4360 C   0  0  0  0  0  3  0  0  0  0  0  0
  138.5620  132.7480  140.6010 C   0  0  0  0  0  1  0  0  0  0  0  0
  137.5280  132.8600  141.6760 C   0  0  0  0  0  3  0  0  0  0  0  0
  137.4490  132.0190  142.7180 C   0  0  0  0  0  3  0  0  0  0  0  0
  137.3230  135.9090  149.9480 C   0  0  0  0  0  2  0  0  0  0  0  0
  136.3530  135.4760  151.0190 C   0  0  0  0  0  0  0  0  0  0  0  0
  135.5190  134.3710  150.8180 C   0  0  0  0  0  3  0  0  0  0  0  0
  134.6030  133.9860  151.7990 C   0  0  0  0  0  3  0  0  0  0  0  0
  134.5030  134.7040  152.9960 C   0  0  0  0  0  0  0  0  0  0  0  0
  135.3150  135.8200  153.2180 C   0  0  0  0  0  0  0  0  0  0  0  0
  136.2320  136.1940  152.2200 C   0  0  0  0  0  3  0  0  0  0  0  0
  133.5950  134.2790  153.9260 O   0  0  0  0  0  0  0  0  0  0  0  0
  132.6980  134.1570  153.6840 H   0  0  0  0  0  0  0  0  0  0  0  0
  135.3480  136.6430  154.3120 O   0  0  0  0  0  0  0  0  0  0  0  0
  136.3500  136.4150  155.2940 C   0  0  0  0  0  1  0  0  0  0  0  0
  1  2  2  0  0  0  0
  1  3  1  0  0  0  0
  3 14  1  0  0  0  0
  4  3  1  0  0  0  0
  5  6  1  0  0  0  0
  5  1  1  0  0  0  0
  7  6  1  0  0  0  0
  8  7  2  0  0  0  0
  9 10  2  0  0  0  0
 10  7  1  0  0  0  0
 11 12  1  0  0  0  0
 12 13  2  0  0  0  0
 13  9  1  0  0  0  0
 14 15  1  0  0  0  0
 15 20  1  0  0  0  0
 16 15  2  0  0  0  0
 16 17  1  0  0  0  0
 17 18  2  0  0  0  0
 18 19  1  0  0  0  0
 18 21  1  0  0  0  0
 19 23  1  0  0  0  0
 20 19  2  0  0  0  0
 22 21  1  0  0  0  0
 23 24  1  0  0  0  0
M  END
>  <MODEL>
3

>  <REMARK>
 VINA RESULT:    -6.307      3.907      8.420
 INTER + INTRA:         -10.045
 INTER:                  -9.477
 INTRA:                  -0.568
 UNBOUND:                -0.603
  Name = CHEMBL4228183
  11 active torsions:
  status: ('A' for Active; 'I' for Inactive)
    1  A    between atoms: C_1  and  C_2
    2  A    between atoms: C_3  and  C_4
    3  A    between atoms: C_5  and  C_6
    4  A    between atoms: C_6  and  O_8
    5  A    between atoms: O_8  and  C_9
    6  A    between atoms: C_9  and  C_10
    7  A    between atoms: N_12  and  C_13
    8  A    between atoms: C_13  and  C_14
    9  A    between atoms: C_17  and  O_18
   10  A    between atoms: C_19  and  O_20
   11  A    between atoms: O_20  and  C_21
                            x       y       z     vdW  Elec       q    Type
                         _______ _______ _______ _____ _____    ______ ____

>  <TORSDO>
F 9

>  <SCORE>
-6.307

>  <RMSD_LB>
3.907

>  <RMSD_UB>
8.420

$$$$
CHEMBL4228183
 OpenBabel10172500233D

 24 24  0  0  0  0  0  0  0  0999 V2000
  133.7490  133.6240  147.3680 C   0  0  0  0  0  0  0  0  0  0  0  0
  132.7030  134.2070  147.6450 O   0  0  0  0  0  0  0  0  0  0  0  0
  134.4680  132.8940  148.2880 N   0  0  0  0  0  0  0  0  0  0  0  0
  135.3020  132.4540  148.0010 H   0  0  0  0  0  0  0  0  0  0  0  0
  134.3460  133.6740  145.9570 C   0  0  0  0  0  2  0  0  0  0  0  0
  135.7060  133.2360  145.9140 O   0  0  0  0  0  0  0  0  0  0  0  0
  135.9170  132.1840  145.0870 C   0  0  0  0  0  0  0  0  0  0  0  0
  135.8640  131.0040  145.4030 O   0  0  0  0  0  0  0  0  0  0  0  0
  137.3140  132.2140  143.0840 C   0  0  0  0  0  3  0  0  0  0  0  0
  136.2420  132.6900  143.7360 C   0  0  0  0  0  3  0  0  0  0  0  0
  137.3460  133.9600  139.6590 C   0  0  0  0  0  1  0  0  0  0  0  0
  136.9620  133.4980  141.0290 C   0  0  0  0  0  3  0  0  0  0  0  0
  137.6990  132.6450  141.7560 C   0  0  0  0  0  3  0  0  0  0  0  0
  134.0390  132.7500  149.6670 C   0  0  0  0  0  2  0  0  0  0  0  0
  134.6370  133.8060  150.5630 C   0  0  0  0  0  0  0  0  0  0  0  0
  135.8270  134.4500  150.2080 C   0  0  0  0  0  3  0  0  0  0  0  0
  136.3940  135.4090  151.0500 C   0  0  0  0  0  3  0  0  0  0  0  0
  135.7820  135.7350  152.2650 C   0  0  0  0  0  0  0  0  0  0  0  0
  134.5990  135.0980  152.6520 C   0  0  0  0  0  0  0  0  0  0  0  0
  134.0410  134.1350  151.7920 C   0  0  0  0  0  3  0  0  0  0  0  0
  136.3750  136.6860  153.0480 O   0  0  0  0  0  0  0  0  0  0  0  0
  136.0620  137.5690  153.0320 H   0  0  0  0  0  0  0  0  0  0  0  0
  133.8730  135.2780  153.7990 O   0  0  0  0  0  0  0  0  0  0  0  0
  134.3650  134.7020  155.0020 C   0  0  0  0  0  1  0  0  0  0  0  0
  1  2  2  0  0  0  0
  1  3  1  0  0  0  0
  3 14  1  0  0  0  0
  4  3  1  0  0  0  0
  5  1  1  0  0  0  0
  6  5  1  0  0  0  0
  7  8  2  0  0  0  0
  7  6  1  0  0  0  0
  9 10  2  0  0  0  0
 10  7  1  0  0  0  0
 11 12  1  0  0  0  0
 12 13  2  0  0  0  0
 13  9  1  0  0  0  0
 14 15  1  0  0  0  0
 15 20  1  0  0  0  0
 16 15  2  0  0  0  0
 16 17  1  0  0  0  0
 17 18  2  0  0  0  0
 18 19  1  0  0  0  0
 18 21  1  0  0  0  0
 19 23  1  0  0  0  0
 20 19  2  0  0  0  0
 22 21  1  0  0  0  0
 23 24  1  0  0  0  0
M  END
>  <MODEL>
4

>  <REMARK>
 VINA RESULT:    -6.303      3.974      8.739
 INTER + INTRA:         -10.038
 INTER:                  -9.488
 INTRA:                  -0.550
 UNBOUND:                -0.603
  Name = CHEMBL4228183
  11 active torsions:
  status: ('A' for Active; 'I' for Inactive)
    1  A    between atoms: C_1  and  C_2
    2  A    between atoms: C_3  and  C_4
    3  A    between atoms: C_5  and  C_6
    4  A    between atoms: C_6  and  O_8
    5  A    between atoms: O_8  and  C_9
    6  A    between atoms: C_9  and  C_10
    7  A    between atoms: N_12  and  C_13
    8  A    between atoms: C_13  and  C_14
    9  A    between atoms: C_17  and  O_18
   10  A    between atoms: C_19  and  O_20
   11  A    between atoms: O_20  and  C_21
                            x       y       z     vdW  Elec       q    Type
                         _______ _______ _______ _____ _____    ______ ____

>  <TORSDO>
F 9

>  <SCORE>
-6.303

>  <RMSD_LB>
3.974

>  <RMSD_UB>
8.739

$$$$
CHEMBL4228183
 OpenBabel10172500233D

 24 24  0  0  0  0  0  0  0  0999 V2000
  137.4290  137.2370  150.0890 C   0  0  0  0  0  0  0  0  0  0  0  0
  137.2280  138.2860  149.4800 O   0  0  0  0  0  0  0  0  0  0  0  0
  138.5210  137.0410  150.9070 N   0  0  0  0  0  0  0  0  0  0  0  0
  138.6250  136.1740  151.3630 H   0  0  0  0  0  0  0  0  0  0  0  0
  136.4710  136.0460  149.9760 C   0  0  0  0  0  2  0  0  0  0  0  0
  135.5270  135.9880  151.0480 O   0  0  0  0  0  0  0  0  0  0  0  0
  135.3880  134.7550  151.5910 C   0  0  0  0  0  0  0  0  0  0  0  0
  134.9750  133.7610  151.0120 O   0  0  0  0  0  0  0  0  0  0  0  0
  135.4530  135.8510  153.7720 C   0  0  0  0  0  3  0  0  0  0  0  0
  135.8020  134.8040  153.0100 C   0  0  0  0  0  3  0  0  0  0  0  0
  137.4390  135.9190  157.0630 C   0  0  0  0  0  1  0  0  0  0  0  0
  137.0540  135.7880  155.6240 C   0  0  0  0  0  3  0  0  0  0  0  0
  135.8050  135.9760  155.1710 C   0  0  0  0  0  3  0  0  0  0  0  0
  139.5220  138.0700  151.1190 C   0  0  0  0  0  2  0  0  0  0  0  0
  140.0630  138.0580  152.5270 C   0  0  0  0  0  0  0  0  0  0  0  0
  139.1960  138.1250  153.6220 C   0  0  0  0  0  3  0  0  0  0  0  0
  139.6980  138.1410  154.9250 C   0  0  0  0  0  3  0  0  0  0  0  0
  141.0780  138.0940  155.1530 C   0  0  0  0  0  0  0  0  0  0  0  0
  141.9690  138.0400  154.0760 C   0  0  0  0  0  0  0  0  0  0  0  0
  141.4460  138.0250  152.7710 C   0  0  0  0  0  3  0  0  0  0  0  0
  141.5170  138.1040  156.4480 O   0  0  0  0  0  0  0  0  0  0  0  0
  141.5400  137.3080  156.9410 H   0  0  0  0  0  0  0  0  0  0  0  0
  143.3370  138.0020  154.1070 O   0  0  0  0  0  0  0  0  0  0  0  0
  144.0360  139.2040  154.4040 C   0  0  0  0  0  1  0  0  0  0  0  0
  1  3  1  0  0  0  0
  2  1  2  0  0  0  0
  3 14  1  0  0  0  0
  3  4  1  0  0  0  0
  5  1  1  0  0  0  0
  5  6  1  0  0  0  0
  6  7  1  0  0  0  0
  7 10  1  0  0  0  0
  8  7  2  0  0  0  0
  9 13  1  0  0  0  0
 10  9  2  0  0  0  0
 12 11  1  0  0  0  0
 13 12  2  0  0  0  0
 14 15  1  0  0  0  0
 15 20  2  0  0  0  0
 15 16  1  0  0  0  0
 16 17  2  0  0  0  0
 17 18  1  0  0  0  0
 18 21  1  0  0  0  0
 19 23  1  0  0  0  0
 19 18  2  0  0  0  0
 20 19  1  0  0  0  0
 21 22  1  0  0  0  0
 23 24  1  0  0  0  0
M  END
>  <MODEL>
5

>  <REMARK>
 VINA RESULT:    -6.096      3.109      8.213
 INTER + INTRA:          -9.729
 INTER:                  -8.679
 INTRA:                  -1.050
 UNBOUND:                -0.603
  Name = CHEMBL4228183
  11 active torsions:
  status: ('A' for Active; 'I' for Inactive)
    1  A    between atoms: C_1  and  C_2
    2  A    between atoms: C_3  and  C_4
    3  A    between atoms: C_5  and  C_6
    4  A    between atoms: C_6  and  O_8
    5  A    between atoms: O_8  and  C_9
    6  A    between atoms: C_9  and  C_10
    7  A    between atoms: N_12  and  C_13
    8  A    between atoms: C_13  and  C_14
    9  A    between atoms: C_17  and  O_18
   10  A    between atoms: C_19  and  O_20
   11  A    between atoms: O_20  and  C_21
                            x       y       z     vdW  Elec       q    Type
                         _______ _______ _______ _____ _____    ______ ____

>  <TORSDO>
F 9

>  <SCORE>
-6.096

>  <RMSD_LB>
3.109

>  <RMSD_UB>
8.213

$$$$
CHEMBL4228183
 OpenBabel10172500233D

 24 24  0  0  0  0  0  0  0  0999 V2000
  142.1530  139.3740  149.4310 C   0  0  0  0  0  0  0  0  0  0  0  0
  142.6570  138.6620  148.5660 O   0  0  0  0  0  0  0  0  0  0  0  0
  142.8780  140.2800  150.1750 N   0  0  0  0  0  0  0  0  0  0  0  0
  142.4130  140.8170  150.8570 H   0  0  0  0  0  0  0  0  0  0  0  0
  140.6580  139.3010  149.7610 C   0  0  0  0  0  2  0  0  0  0  0  0
  140.3990  139.2760  151.1670 O   0  0  0  0  0  0  0  0  0  0  0  0
  140.1900  138.0340  151.6640 C   0  0  0  0  0  0  0  0  0  0  0  0
  141.0550  137.2060  151.9120 O   0  0  0  0  0  0  0  0  0  0  0  0
  138.0820  136.9580  151.0610 C   0  0  0  0  0  3  0  0  0  0  0  0
  138.7360  137.8260  151.8460 C   0  0  0  0  0  3  0  0  0  0  0  0
  134.6510  135.8900  152.4280 C   0  0  0  0  0  1  0  0  0  0  0  0
  136.1130  136.1720  152.2870 C   0  0  0  0  0  3  0  0  0  0  0  0
  136.6640  136.6850  151.1760 C   0  0  0  0  0  3  0  0  0  0  0  0
  144.3040  140.4680  149.9870 C   0  0  0  0  0  2  0  0  0  0  0  0
  144.9980  140.8780  151.2620 C   0  0  0  0  0  0  0  0  0  0  0  0
  145.7950  142.0270  151.3000 C   0  0  0  0  0  3  0  0  0  0  0  0
  146.4590  142.3920  152.4730 C   0  0  0  0  0  3  0  0  0  0  0  0
  146.3390  141.6100  153.6270 C   0  0  0  0  0  0  0  0  0  0  0  0
  145.5600  140.4490  153.6140 C   0  0  0  0  0  0  0  0  0  0  0  0
  144.8980  140.0960  152.4240 C   0  0  0  0  0  3  0  0  0  0  0  0
  147.0030  142.0160  154.7510 O   0  0  0  0  0  0  0  0  0  0  0  0
  146.7210  141.7210  155.5940 H   0  0  0  0  0  0  0  0  0  0  0  0
  145.3390  139.5620  154.6340 O   0  0  0  0  0  0  0  0  0  0  0  0
  145.5390  138.1790  154.3760 C   0  0  0  0  0  1  0  0  0  0  0  0
  1  5  1  0  0  0  0
  1  3  1  0  0  0  0
  2  1  2  0  0  0  0
  3  4  1  0  0  0  0
  5  6  1  0  0  0  0
  6  7  1  0  0  0  0
  7 10  1  0  0  0  0
  7  8  2  0  0  0  0
  9 13  1  0  0  0  0
  9 10  2  0  0  0  0
 12 11  1  0  0  0  0
 13 12  2  0  0  0  0
 14  3  1  0  0  0  0
 14 15  1  0  0  0  0
 15 16  2  0  0  0  0
 15 20  1  0  0  0  0
 16 17  1  0  0  0  0
 17 18  2  0  0  0  0
 18 21  1  0  0  0  0
 19 18  1  0  0  0  0
 19 23  1  0  0  0  0
 20 19  2  0  0  0  0
 21 22  1  0  0  0  0
 24 23  1  0  0  0  0
M  END
>  <MODEL>
6

>  <REMARK>
 VINA RESULT:    -5.888      5.237     11.225
 INTER + INTRA:          -9.417
 INTER:                  -8.814
 INTRA:                  -0.603
 UNBOUND:                -0.603
  Name = CHEMBL4228183
  11 active torsions:
  status: ('A' for Active; 'I' for Inactive)
    1  A    between atoms: C_1  and  C_2
    2  A    between atoms: C_3  and  C_4
    3  A    between atoms: C_5  and  C_6
    4  A    between atoms: C_6  and  O_8
    5  A    between atoms: O_8  and  C_9
    6  A    between atoms: C_9  and  C_10
    7  A    between atoms: N_12  and  C_13
    8  A    between atoms: C_13  and  C_14
    9  A    between atoms: C_17  and  O_18
   10  A    between atoms: C_19  and  O_20
   11  A    between atoms: O_20  and  C_21
                            x       y       z     vdW  Elec       q    Type
                         _______ _______ _______ _____ _____    ______ ____

>  <TORSDO>
F 9

>  <SCORE>
-5.888

>  <RMSD_LB>
5.237

>  <RMSD_UB>
11.225

$$$$
CHEMBL4228183
 OpenBabel10172500233D

 24 24  0  0  0  0  0  0  0  0999 V2000
  136.7880  136.2450  147.6540 C   0  0  0  0  0  0  0  0  0  0  0  0
  136.5810  137.4560  147.6230 O   0  0  0  0  0  0  0  0  0  0  0  0
  137.1280  135.5700  148.8070 N   0  0  0  0  0  0  0  0  0  0  0  0
  137.2840  134.5990  148.7610 H   0  0  0  0  0  0  0  0  0  0  0  0
  136.6910  135.3810  146.3920 C   0  0  0  0  0  2  0  0  0  0  0  0
  136.2100  134.0620  146.6570 O   0  0  0  0  0  0  0  0  0  0  0  0
  135.7700  133.4070  145.5560 C   0  0  0  0  0  0  0  0  0  0  0  0
  134.9020  132.5460  145.5340 O   0  0  0  0  0  0  0  0  0  0  0  0
  137.0090  133.0080  143.4900 C   0  0  0  0  0  3  0  0  0  0  0  0
  136.5210  133.8890  144.3760 C   0  0  0  0  0  3  0  0  0  0  0  0
  138.8170  132.8970  140.0990 C   0  0  0  0  0  1  0  0  0  0  0  0
  138.0640  132.5190  141.3340 C   0  0  0  0  0  3  0  0  0  0  0  0
  137.7460  133.3910  142.3030 C   0  0  0  0  0  3  0  0  0  0  0  0
  137.2630  136.2430  150.0850 C   0  0  0  0  0  2  0  0  0  0  0  0
  136.2560  135.7540  151.0960 C   0  0  0  0  0  0  0  0  0  0  0  0
  136.2830  136.2250  152.4130 C   0  0  0  0  0  3  0  0  0  0  0  0
  135.3680  135.7520  153.3550 C   0  0  0  0  0  3  0  0  0  0  0  0
  134.4130  134.7950  152.9970 C   0  0  0  0  0  0  0  0  0  0  0  0
  134.3710  134.2960  151.6910 C   0  0  0  0  0  0  0  0  0  0  0  0
  135.3000  134.7830  150.7550 C   0  0  0  0  0  3  0  0  0  0  0  0
  133.5350  134.3710  153.9560 O   0  0  0  0  0  0  0  0  0  0  0  0
  132.6690  134.7270  153.9890 H   0  0  0  0  0  0  0  0  0  0  0  0
  133.5230  133.3570  151.1670 O   0  0  0  0  0  0  0  0  0  0  0  0
  132.4790  133.7990  150.3090 C   0  0  0  0  0  1  0  0  0  0  0  0
  1  3  1  0  0  0  0
  2  1  2  0  0  0  0
  3 14  1  0  0  0  0
  4  3  1  0  0  0  0
  5  6  1  0  0  0  0
  5  1  1  0  0  0  0
  7  6  1  0  0  0  0
  8  7  2  0  0  0  0
  9 10  2  0  0  0  0
 10  7  1  0  0  0  0
 11 12  1  0  0  0  0
 12 13  2  0  0  0  0
 13  9  1  0  0  0  0
 14 15  1  0  0  0  0
 15 16  1  0  0  0  0
 16 17  2  0  0  0  0
 18 17  1  0  0  0  0
 18 21  1  0  0  0  0
 19 18  2  0  0  0  0
 20 15  2  0  0  0  0
 20 19  1  0  0  0  0
 21 22  1  0  0  0  0
 23 19  1  0  0  0  0
 24 23  1  0  0  0  0
M  END
>  <MODEL>
7

>  <REMARK>
 VINA RESULT:    -5.801      4.228      8.196
 INTER + INTRA:          -9.287
 INTER:                  -8.706
 INTRA:                  -0.581
 UNBOUND:                -0.603
  Name = CHEMBL4228183
  11 active torsions:
  status: ('A' for Active; 'I' for Inactive)
    1  A    between atoms: C_1  and  C_2
    2  A    between atoms: C_3  and  C_4
    3  A    between atoms: C_5  and  C_6
    4  A    between atoms: C_6  and  O_8
    5  A    between atoms: O_8  and  C_9
    6  A    between atoms: C_9  and  C_10
    7  A    between atoms: N_12  and  C_13
    8  A    between atoms: C_13  and  C_14
    9  A    between atoms: C_17  and  O_18
   10  A    between atoms: C_19  and  O_20
   11  A    between atoms: O_20  and  C_21
                            x       y       z     vdW  Elec       q    Type
                         _______ _______ _______ _____ _____    ______ ____

>  <TORSDO>
F 9

>  <SCORE>
-5.801

>  <RMSD_LB>
4.228

>  <RMSD_UB>
8.196

$$$$
CHEMBL4228183
 OpenBabel10172500233D

 24 24  0  0  0  0  0  0  0  0999 V2000
  143.6090  138.0010  148.6660 C   0  0  0  0  0  0  0  0  0  0  0  0
  143.2000  137.1070  147.9300 O   0  0  0  0  0  0  0  0  0  0  0  0
  143.4360  137.9870  150.0330 N   0  0  0  0  0  0  0  0  0  0  0  0
  143.7850  138.7390  150.5660 H   0  0  0  0  0  0  0  0  0  0  0  0
  144.3470  139.2250  148.1110 C   0  0  0  0  0  2  0  0  0  0  0  0
  144.9640  140.0130  149.1310 O   0  0  0  0  0  0  0  0  0  0  0  0
  145.9240  140.8510  148.6720 C   0  0  0  0  0  0  0  0  0  0  0  0
  146.3320  140.9100  147.5210 O   0  0  0  0  0  0  0  0  0  0  0  0
  147.1310  141.1140  150.7790 C   0  0  0  0  0  3  0  0  0  0  0  0
  146.4170  141.6790  149.7940 C   0  0  0  0  0  3  0  0  0  0  0  0
  148.9390  142.0100  154.0510 C   0  0  0  0  0  1  0  0  0  0  0  0
  148.3770  141.2660  152.8820 C   0  0  0  0  0  3  0  0  0  0  0  0
  147.6610  141.8500  151.9080 C   0  0  0  0  0  3  0  0  0  0  0  0
  142.7560  136.9020  150.7150 C   0  0  0  0  0  2  0  0  0  0  0  0
  141.5840  137.3870  151.5320 C   0  0  0  0  0  0  0  0  0  0  0  0
  140.2880  137.3490  151.0090 C   0  0  0  0  0  3  0  0  0  0  0  0
  139.2070  137.8220  151.7550 C   0  0  0  0  0  3  0  0  0  0  0  0
  139.4070  138.3460  153.0370 C   0  0  0  0  0  0  0  0  0  0  0  0
  140.6940  138.4090  153.5810 C   0  0  0  0  0  0  0  0  0  0  0  0
  141.7710  137.9270  152.8150 C   0  0  0  0  0  3  0  0  0  0  0  0
  138.3130  138.7890  153.7290 O   0  0  0  0  0  0  0  0  0  0  0  0
  138.1050  138.4190  154.5640 H   0  0  0  0  0  0  0  0  0  0  0  0
  141.0780  138.8950  154.8020 O   0  0  0  0  0  0  0  0  0  0  0  0
  142.4090  139.3720  154.9460 C   0  0  0  0  0  1  0  0  0  0  0  0
  1  3  1  0  0  0  0
  2  1  2  0  0  0  0
  3  4  1  0  0  0  0
  3 14  1  0  0  0  0
  5  1  1  0  0  0  0
  5  6  1  0  0  0  0
  7  6  1  0  0  0  0
  7 10  1  0  0  0  0
  8  7  2  0  0  0  0
  9 13  1  0  0  0  0
 10  9  2  0  0  0  0
 12 11  1  0  0  0  0
 13 12  2  0  0  0  0
 14 15  1  0  0  0  0
 15 20  1  0  0  0  0
 16 15  2  0  0  0  0
 16 17  1  0  0  0  0
 17 18  2  0  0  0  0
 18 19  1  0  0  0  0
 18 21  1  0  0  0  0
 19 23  1  0  0  0  0
 20 19  2  0  0  0  0
 21 22  1  0  0  0  0
 23 24  1  0  0  0  0
M  END
>  <MODEL>
8

>  <REMARK>
 VINA RESULT:    -5.781      5.972      9.642
 INTER + INTRA:          -9.257
 INTER:                  -8.667
 INTRA:                  -0.591
 UNBOUND:                -0.603
  Name = CHEMBL4228183
  11 active torsions:
  status: ('A' for Active; 'I' for Inactive)
    1  A    between atoms: C_1  and  C_2
    2  A    between atoms: C_3  and  C_4
    3  A    between atoms: C_5  and  C_6
    4  A    between atoms: C_6  and  O_8
    5  A    between atoms: O_8  and  C_9
    6  A    between atoms: C_9  and  C_10
    7  A    between atoms: N_12  and  C_13
    8  A    between atoms: C_13  and  C_14
    9  A    between atoms: C_17  and  O_18
   10  A    between atoms: C_19  and  O_20
   11  A    between atoms: O_20  and  C_21
                            x       y       z     vdW  Elec       q    Type
                         _______ _______ _______ _____ _____    ______ ____

>  <TORSDO>
F 9

>  <SCORE>
-5.781

>  <RMSD_LB>
5.972

>  <RMSD_UB>
9.642

$$$$
CHEMBL4228183
 OpenBabel10172500233D

 24 24  0  0  0  0  0  0  0  0999 V2000
  145.0800  137.1420  149.9710 C   0  0  0  0  0  0  0  0  0  0  0  0
  144.1280  136.6450  149.3740 O   0  0  0  0  0  0  0  0  0  0  0  0
  145.0720  137.3850  151.3270 N   0  0  0  0  0  0  0  0  0  0  0  0
  145.8680  137.7900  151.7430 H   0  0  0  0  0  0  0  0  0  0  0  0
  146.3660  137.5430  149.2390 C   0  0  0  0  0  2  0  0  0  0  0  0
  146.1930  138.6820  148.3940 O   0  0  0  0  0  0  0  0  0  0  0  0
  145.8660  139.8150  149.0600 C   0  0  0  0  0  0  0  0  0  0  0  0
  144.8170  140.4340  148.9490 O   0  0  0  0  0  0  0  0  0  0  0  0
  146.7480  140.7420  151.1410 C   0  0  0  0  0  3  0  0  0  0  0  0
  146.9930  140.1990  149.9380 C   0  0  0  0  0  3  0  0  0  0  0  0
  148.5870  141.9530  154.2920 C   0  0  0  0  0  1  0  0  0  0  0  0
  147.5270  141.5480  153.3180 C   0  0  0  0  0  3  0  0  0  0  0  0
  147.7880  141.1370  152.0680 C   0  0  0  0  0  3  0  0  0  0  0  0
  143.9300  137.0640  152.1630 C   0  0  0  0  0  2  0  0  0  0  0  0
  143.7460  138.0590  153.2820 C   0  0  0  0  0  0  0  0  0  0  0  0
  144.8420  138.7490  153.8080 C   0  0  0  0  0  3  0  0  0  0  0  0
  144.6750  139.6500  154.8620 C   0  0  0  0  0  3  0  0  0  0  0  0
  143.4070  139.8720  155.4100 C   0  0  0  0  0  0  0  0  0  0  0  0
  142.2950  139.1850  154.9130 C   0  0  0  0  0  0  0  0  0  0  0  0
  142.4810  138.2820  153.8520 C   0  0  0  0  0  3  0  0  0  0  0  0
  143.2980  140.7700  156.4350 O   0  0  0  0  0  0  0  0  0  0  0  0
  143.4490  140.4950  157.3180 H   0  0  0  0  0  0  0  0  0  0  0  0
  140.9920  139.2640  155.3290 O   0  0  0  0  0  0  0  0  0  0  0  0
  139.9850  138.7170  154.4880 C   0  0  0  0  0  1  0  0  0  0  0  0
  1  3  1  0  0  0  0
  2  1  2  0  0  0  0
  3  4  1  0  0  0  0
  3 14  1  0  0  0  0
  5  1  1  0  0  0  0
  6  7  1  0  0  0  0
  6  5  1  0  0  0  0
  7 10  1  0  0  0  0
  8  7  2  0  0  0  0
  9 13  1  0  0  0  0
 10  9  2  0  0  0  0
 12 11  1  0  0  0  0
 13 12  2  0  0  0  0
 14 15  1  0  0  0  0
 15 16  2  0  0  0  0
 15 20  1  0  0  0  0
 16 17  1  0  0  0  0
 17 18  2  0  0  0  0
 18 21  1  0  0  0  0
 19 23  1  0  0  0  0
 19 18  1  0  0  0  0
 20 19  2  0  0  0  0
 21 22  1  0  0  0  0
 24 23  1  0  0  0  0
M  END
>  <MODEL>
9

>  <REMARK>
 VINA RESULT:    -5.752      7.588     10.963
 INTER + INTRA:          -9.214
 INTER:                  -8.047
 INTRA:                  -1.167
 UNBOUND:                -0.603
  Name = CHEMBL4228183
  11 active torsions:
  status: ('A' for Active; 'I' for Inactive)
    1  A    between atoms: C_1  and  C_2
    2  A    between atoms: C_3  and  C_4
    3  A    between atoms: C_5  and  C_6
    4  A    between atoms: C_6  and  O_8
    5  A    between atoms: O_8  and  C_9
    6  A    between atoms: C_9  and  C_10
    7  A    between atoms: N_12  and  C_13
    8  A    between atoms: C_13  and  C_14
    9  A    between atoms: C_17  and  O_18
   10  A    between atoms: C_19  and  O_20
   11  A    between atoms: O_20  and  C_21
                            x       y       z     vdW  Elec       q    Type
                         _______ _______ _______ _____ _____    ______ ____

>  <TORSDO>
F 9

>  <SCORE>
-5.752

>  <RMSD_LB>
7.588

>  <RMSD_UB>
10.963

$$$$
