CHEMBL1087259
 OpenBabel10172500013D

 29 30  0  0  0  0  0  0  0  0999 V2000
  144.0990  139.3800  148.9260 C   0  0  0  0  0  2  0  0  0  0  0  0
  144.9940  138.1970  149.1760 C   0  0  0  0  0  0  0  0  0  0  0  0
  146.2080  138.2720  148.9770 O   0  0  0  0  0  0  0  0  0  0  0  0
  144.3400  136.9230  149.6810 C   0  0  0  0  0  2  0  0  0  0  0  0
  145.2190  136.2720  150.7450 C   0  0  0  0  0  2  0  0  0  0  0  0
  144.0430  138.1410  153.8620 C   0  0  0  0  0  0  0  0  0  0  0  0
  144.0330  137.4020  152.6750 C   0  0  0  0  0  3  0  0  0  0  0  0
  145.2350  137.0340  152.0460 C   0  0  0  0  0  0  0  0  0  0  0  0
  146.4540  137.3920  152.6330 C   0  0  0  0  0  3  0  0  0  0  0  0
  146.4770  138.1290  153.8150 C   0  0  0  0  0  3  0  0  0  0  0  0
  145.2750  138.5010  154.4210 C   0  0  0  0  0  0  0  0  0  0  0  0
  141.7200  138.6820  153.8020 C   0  0  0  0  0  1  0  0  0  0  0  0
  142.9270  138.5560  154.5390 O   0  0  0  0  0  0  0  0  0  0  0  0
  145.3000  139.2400  155.5750 O   0  0  0  0  0  0  0  0  0  0  0  0
  145.4340  138.8160  156.3990 H   0  0  0  0  0  0  0  0  0  0  0  0
  143.8640  140.2580  150.1280 C   0  0  0  0  0  0  0  0  0  0  0  0
  142.8660  140.1480  150.8370 O   0  0  0  0  0  0  0  0  0  0  0  0
  144.9340  141.2830  150.4510 C   0  0  0  0  0  2  0  0  0  0  0  0
  145.2740  141.2890  151.9370 C   0  0  0  0  0  2  0  0  0  0  0  0
  146.7230  141.6170  152.1910 C   0  0  0  0  0  0  0  0  0  0  0  0
  147.5750  141.9470  151.1230 C   0  0  0  0  0  3  0  0  0  0  0  0
  148.9250  142.2360  151.3480 C   0  0  0  0  0  3  0  0  0  0  0  0
  149.4170  142.2020  152.6460 C   0  0  0  0  0  0  0  0  0  0  0  0
  148.5760  141.8880  153.7100 C   0  0  0  0  0  0  0  0  0  0  0  0
  147.2350  141.5990  153.4950 C   0  0  0  0  0  3  0  0  0  0  0  0
  150.7290  142.4690  152.9300 O   0  0  0  0  0  0  0  0  0  0  0  0
  151.0080  142.5530  153.8200 H   0  0  0  0  0  0  0  0  0  0  0  0
  149.0690  141.8520  154.9820 O   0  0  0  0  0  0  0  0  0  0  0  0
  148.5530  141.4880  155.6740 H   0  0  0  0  0  0  0  0  0  0  0  0
  1  2  1  0  0  0  0
  1 16  1  0  0  0  0
  2  4  1  0  0  0  0
  3  2  2  0  0  0  0
  4  5  1  0  0  0  0
  5  8  1  0  0  0  0
  6 11  1  0  0  0  0
  6 13  1  0  0  0  0
  7  6  2  0  0  0  0
  8  9  2  0  0  0  0
  8  7  1  0  0  0  0
  9 10  1  0  0  0  0
 10 11  2  0  0  0  0
 11 14  1  0  0  0  0
 12 13  1  0  0  0  0
 14 15  1  0  0  0  0
 16 18  1  0  0  0  0
 16 17  2  0  0  0  0
 18 19  1  0  0  0  0
 19 20  1  0  0  0  0
 20 25  1  0  0  0  0
 21 22  1  0  0  0  0
 21 20  2  0  0  0  0
 22 23  2  0  0  0  0
 23 26  1  0  0  0  0
 23 24  1  0  0  0  0
 24 28  1  0  0  0  0
 25 24  2  0  0  0  0
 26 27  1  0  0  0  0
 28 29  1  0  0  0  0
M  END
>  <MODEL>
1

>  <REMARK>
 VINA RESULT:    -7.179      0.000      0.000
 INTER + INTRA:         -13.182
 INTER:                 -11.022
 INTRA:                  -2.161
 UNBOUND:                -1.596
  Name = CHEMBL1087259
  13 active torsions:
  status: ('A' for Active; 'I' for Inactive)
    1  A    between atoms: C_1  and  O_2
    2  A    between atoms: O_2  and  C_3
    3  A    between atoms: C_5  and  C_6
    4  A    between atoms: C_6  and  C_7
    5  A    between atoms: C_7  and  C_8
    6  A    between atoms: C_8  and  C_10
    7  A    between atoms: C_10  and  C_11
    8  A    between atoms: C_11  and  C_13
    9  A    between atoms: C_13  and  C_14
   10  A    between atoms: C_14  and  C_15
   11  A    between atoms: C_18  and  O_19
   12  A    between atoms: C_20  and  O_21
   13  A    between atoms: C_25  and  O_26
                            x       y       z     vdW  Elec       q    Type
                         _______ _______ _______ _____ _____    ______ ____

>  <TORSDO>
F 12

>  <SCORE>
-7.179

>  <RMSD_LB>
0.000

>  <RMSD_UB>
0.000

$$$$
CHEMBL1087259
 OpenBabel10172500013D

 29 30  0  0  0  0  0  0  0  0999 V2000
  139.8300  138.0560  152.6800 C   0  0  0  0  0  2  0  0  0  0  0  0
  139.0120  138.4200  153.8890 C   0  0  0  0  0  0  0  0  0  0  0  0
  139.3100  139.3950  154.5810 O   0  0  0  0  0  0  0  0  0  0  0  0
  137.8150  137.5430  154.2110 C   0  0  0  0  0  2  0  0  0  0  0  0
  137.9280  137.0080  155.6360 C   0  0  0  0  0  2  0  0  0  0  0  0
  135.3730  135.2030  157.8270 C   0  0  0  0  0  0  0  0  0  0  0  0
  136.4700  135.9720  157.4260 C   0  0  0  0  0  3  0  0  0  0  0  0
  136.7230  136.2120  156.0650 C   0  0  0  0  0  0  0  0  0  0  0  0
  135.8490  135.6920  155.1030 C   0  0  0  0  0  3  0  0  0  0  0  0
  134.7530  134.9220  155.4890 C   0  0  0  0  0  3  0  0  0  0  0  0
  134.5220  134.6810  156.8460 C   0  0  0  0  0  0  0  0  0  0  0  0
  134.4590  135.9310  159.9070 C   0  0  0  0  0  1  0  0  0  0  0  0
  135.0530  134.9060  159.1260 O   0  0  0  0  0  0  0  0  0  0  0  0
  133.4530  133.9100  157.2220 O   0  0  0  0  0  0  0  0  0  0  0  0
  133.5820  133.1780  157.7920 H   0  0  0  0  0  0  0  0  0  0  0  0
  139.1490  138.3060  151.3590 C   0  0  0  0  0  0  0  0  0  0  0  0
  139.0970  139.4220  150.8480 O   0  0  0  0  0  0  0  0  0  0  0  0
  138.5410  137.1050  150.6610 C   0  0  0  0  0  2  0  0  0  0  0  0
  137.1150  137.3870  150.2020 C   0  0  0  0  0  2  0  0  0  0  0  0
  136.1670  136.2720  150.5640 C   0  0  0  0  0  0  0  0  0  0  0  0
  136.5580  135.2730  151.4710 C   0  0  0  0  0  3  0  0  0  0  0  0
  135.6910  134.2250  151.7980 C   0  0  0  0  0  3  0  0  0  0  0  0
  134.4280  134.1870  151.2220 C   0  0  0  0  0  0  0  0  0  0  0  0
  134.0300  135.1800  150.3320 C   0  0  0  0  0  0  0  0  0  0  0  0
  134.8850  136.2230  150.0000 C   0  0  0  0  0  3  0  0  0  0  0  0
  133.5360  133.1850  151.4980 O   0  0  0  0  0  0  0  0  0  0  0  0
  133.0460  132.7910  150.8040 H   0  0  0  0  0  0  0  0  0  0  0  0
  132.7880  135.1330  149.7660 O   0  0  0  0  0  0  0  0  0  0  0  0
  132.5380  134.3950  149.2460 H   0  0  0  0  0  0  0  0  0  0  0  0
  1  2  1  0  0  0  0
  2  4  1  0  0  0  0
  2  3  2  0  0  0  0
  4  5  1  0  0  0  0
  5  8  1  0  0  0  0
  6 13  1  0  0  0  0
  7  6  1  0  0  0  0
  8  7  2  0  0  0  0
  9 10  2  0  0  0  0
  9  8  1  0  0  0  0
 10 11  1  0  0  0  0
 11 14  1  0  0  0  0
 11  6  2  0  0  0  0
 13 12  1  0  0  0  0
 14 15  1  0  0  0  0
 16  1  1  0  0  0  0
 17 16  2  0  0  0  0
 18 16  1  0  0  0  0
 19 20  1  0  0  0  0
 19 18  1  0  0  0  0
 20 21  1  0  0  0  0
 21 22  2  0  0  0  0
 23 26  1  0  0  0  0
 23 22  1  0  0  0  0
 24 23  2  0  0  0  0
 25 24  1  0  0  0  0
 25 20  2  0  0  0  0
 27 26  1  0  0  0  0
 28 24  1  0  0  0  0
 29 28  1  0  0  0  0
M  END
>  <MODEL>
2

>  <REMARK>
 VINA RESULT:    -6.988      7.438     11.710
 INTER + INTRA:         -12.874
 INTER:                 -11.333
 INTRA:                  -1.542
 UNBOUND:                -1.596
  Name = CHEMBL1087259
  13 active torsions:
  status: ('A' for Active; 'I' for Inactive)
    1  A    between atoms: C_1  and  O_2
    2  A    between atoms: O_2  and  C_3
    3  A    between atoms: C_5  and  C_6
    4  A    between atoms: C_6  and  C_7
    5  A    between atoms: C_7  and  C_8
    6  A    between atoms: C_8  and  C_10
    7  A    between atoms: C_10  and  C_11
    8  A    between atoms: C_11  and  C_13
    9  A    between atoms: C_13  and  C_14
   10  A    between atoms: C_14  and  C_15
   11  A    between atoms: C_18  and  O_19
   12  A    between atoms: C_20  and  O_21
   13  A    between atoms: C_25  and  O_26
                            x       y       z     vdW  Elec       q    Type
                         _______ _______ _______ _____ _____    ______ ____

>  <TORSDO>
F 12

>  <SCORE>
-6.988

>  <RMSD_LB>
7.438

>  <RMSD_UB>
11.710

$$$$
CHEMBL1087259
 OpenBabel10172500013D

 29 30  0  0  0  0  0  0  0  0999 V2000
  141.4620  138.1430  153.4810 C   0  0  0  0  0  2  0  0  0  0  0  0
  140.6730  138.5210  154.7050 C   0  0  0  0  0  0  0  0  0  0  0  0
  140.3180  139.6870  154.8890 O   0  0  0  0  0  0  0  0  0  0  0  0
  140.3370  137.4140  155.6880 C   0  0  0  0  0  2  0  0  0  0  0  0
  139.1240  137.8100  156.5240 C   0  0  0  0  0  2  0  0  0  0  0  0
  136.1380  136.4230  154.5860 C   0  0  0  0  0  0  0  0  0  0  0  0
  137.3070  137.1230  154.9000 C   0  0  0  0  0  3  0  0  0  0  0  0
  137.8860  137.0230  156.1780 C   0  0  0  0  0  0  0  0  0  0  0  0
  137.2930  136.1920  157.1350 C   0  0  0  0  0  3  0  0  0  0  0  0
  136.1270  135.4910  156.8360 C   0  0  0  0  0  3  0  0  0  0  0  0
  135.5550  135.6110  155.5670 C   0  0  0  0  0  0  0  0  0  0  0  0
  136.1510  135.8770  152.2640 C   0  0  0  0  0  1  0  0  0  0  0  0
  135.4960  136.4670  153.3770 O   0  0  0  0  0  0  0  0  0  0  0  0
  134.3990  134.9330  155.2790 O   0  0  0  0  0  0  0  0  0  0  0  0
  134.1000  134.2550  155.8510 H   0  0  0  0  0  0  0  0  0  0  0  0
  142.9560  138.0970  153.6840 C   0  0  0  0  0  0  0  0  0  0  0  0
  143.5520  137.0540  153.9400 O   0  0  0  0  0  0  0  0  0  0  0  0
  143.7100  139.4040  153.5330 C   0  0  0  0  0  2  0  0  0  0  0  0
  144.6610  139.6400  154.7020 C   0  0  0  0  0  2  0  0  0  0  0  0
  145.9880  140.1980  154.2560 C   0  0  0  0  0  0  0  0  0  0  0  0
  146.0860  141.5270  153.8090 C   0  0  0  0  0  3  0  0  0  0  0  0
  147.3100  142.0480  153.3770 C   0  0  0  0  0  3  0  0  0  0  0  0
  148.4370  141.2370  153.4010 C   0  0  0  0  0  0  0  0  0  0  0  0
  148.3490  139.9230  153.8530 C   0  0  0  0  0  0  0  0  0  0  0  0
  147.1370  139.3970  154.2830 C   0  0  0  0  0  3  0  0  0  0  0  0
  149.6610  141.6850  152.9860 O   0  0  0  0  0  0  0  0  0  0  0  0
  149.8840  142.5910  153.0760 H   0  0  0  0  0  0  0  0  0  0  0  0
  149.4600  139.1300  153.8690 O   0  0  0  0  0  0  0  0  0  0  0  0
  149.4690  138.3250  153.3900 H   0  0  0  0  0  0  0  0  0  0  0  0
  1 16  1  0  0  0  0
  1  2  1  0  0  0  0
  2  3  2  0  0  0  0
  2  4  1  0  0  0  0
  4  5  1  0  0  0  0
  6  7  2  0  0  0  0
  6 11  1  0  0  0  0
  7  8  1  0  0  0  0
  8  5  1  0  0  0  0
  8  9  2  0  0  0  0
 10  9  1  0  0  0  0
 11 10  2  0  0  0  0
 12 13  1  0  0  0  0
 13  6  1  0  0  0  0
 14 11  1  0  0  0  0
 14 15  1  0  0  0  0
 16 17  2  0  0  0  0
 18 16  1  0  0  0  0
 18 19  1  0  0  0  0
 20 25  1  0  0  0  0
 20 19  1  0  0  0  0
 21 20  2  0  0  0  0
 22 23  2  0  0  0  0
 22 21  1  0  0  0  0
 23 24  1  0  0  0  0
 24 28  1  0  0  0  0
 24 25  2  0  0  0  0
 26 27  1  0  0  0  0
 26 23  1  0  0  0  0
 29 28  1  0  0  0  0
M  END
>  <MODEL>
3

>  <REMARK>
 VINA RESULT:    -6.391      4.263      6.634
 INTER + INTRA:         -11.910
 INTER:                 -11.124
 INTRA:                  -0.786
 UNBOUND:                -1.596
  Name = CHEMBL1087259
  13 active torsions:
  status: ('A' for Active; 'I' for Inactive)
    1  A    between atoms: C_1  and  O_2
    2  A    between atoms: O_2  and  C_3
    3  A    between atoms: C_5  and  C_6
    4  A    between atoms: C_6  and  C_7
    5  A    between atoms: C_7  and  C_8
    6  A    between atoms: C_8  and  C_10
    7  A    between atoms: C_10  and  C_11
    8  A    between atoms: C_11  and  C_13
    9  A    between atoms: C_13  and  C_14
   10  A    between atoms: C_14  and  C_15
   11  A    between atoms: C_18  and  O_19
   12  A    between atoms: C_20  and  O_21
   13  A    between atoms: C_25  and  O_26
                            x       y       z     vdW  Elec       q    Type
                         _______ _______ _______ _____ _____    ______ ____

>  <TORSDO>
F 12

>  <SCORE>
-6.391

>  <RMSD_LB>
4.263

>  <RMSD_UB>
6.634

$$$$
CHEMBL1087259
 OpenBabel10172500013D

 29 30  0  0  0  0  0  0  0  0999 V2000
  143.2160  136.2690  150.3470 C   0  0  0  0  0  2  0  0  0  0  0  0
  143.0650  137.4380  151.2810 C   0  0  0  0  0  0  0  0  0  0  0  0
  142.9150  137.2620  152.4910 O   0  0  0  0  0  0  0  0  0  0  0  0
  143.1070  138.8280  150.6710 C   0  0  0  0  0  2  0  0  0  0  0  0
  143.4780  139.8550  151.7370 C   0  0  0  0  0  2  0  0  0  0  0  0
  146.2120  141.5620  149.6870 C   0  0  0  0  0  0  0  0  0  0  0  0
  145.0680  140.8340  150.0270 C   0  0  0  0  0  3  0  0  0  0  0  0
  144.6900  140.6720  151.3720 C   0  0  0  0  0  0  0  0  0  0  0  0
  145.4600  141.2700  152.3760 C   0  0  0  0  0  3  0  0  0  0  0  0
  146.6040  141.9960  152.0500 C   0  0  0  0  0  3  0  0  0  0  0  0
  146.9750  142.1370  150.7110 C   0  0  0  0  0  0  0  0  0  0  0  0
  146.1750  140.8980  147.3950 C   0  0  0  0  0  1  0  0  0  0  0  0
  146.6660  141.7620  148.4090 O   0  0  0  0  0  0  0  0  0  0  0  0
  148.1090  142.8370  150.3930 O   0  0  0  0  0  0  0  0  0  0  0  0
  148.0760  143.5100  149.7430 H   0  0  0  0  0  0  0  0  0  0  0  0
  144.4700  136.2890  149.5090 C   0  0  0  0  0  0  0  0  0  0  0  0
  144.5010  135.8480  148.3630 O   0  0  0  0  0  0  0  0  0  0  0  0
  145.7050  136.9070  150.1350 C   0  0  0  0  0  2  0  0  0  0  0  0
  146.1610  136.1260  151.3630 C   0  0  0  0  0  2  0  0  0  0  0  0
  146.6690  137.0280  152.4580 C   0  0  0  0  0  0  0  0  0  0  0  0
  146.1170  136.9590  153.7490 C   0  0  0  0  0  3  0  0  0  0  0  0
  146.5710  137.8050  154.7660 C   0  0  0  0  0  3  0  0  0  0  0  0
  147.5840  138.7140  154.4900 C   0  0  0  0  0  0  0  0  0  0  0  0
  148.1420  138.7800  153.2170 C   0  0  0  0  0  0  0  0  0  0  0  0
  147.6970  137.9440  152.2000 C   0  0  0  0  0  3  0  0  0  0  0  0
  148.0660  139.5720  155.4410 O   0  0  0  0  0  0  0  0  0  0  0  0
  148.7200  140.2020  155.2140 H   0  0  0  0  0  0  0  0  0  0  0  0
  149.1340  139.6790  152.9510 O   0  0  0  0  0  0  0  0  0  0  0  0
  149.8030  139.8400  153.5870 H   0  0  0  0  0  0  0  0  0  0  0  0
  1  2  1  0  0  0  0
  2  3  2  0  0  0  0
  4  2  1  0  0  0  0
  4  5  1  0  0  0  0
  6  7  2  0  0  0  0
  6 11  1  0  0  0  0
  7  8  1  0  0  0  0
  8  5  1  0  0  0  0
  8  9  2  0  0  0  0
 10  9  1  0  0  0  0
 11 10  2  0  0  0  0
 12 13  1  0  0  0  0
 13  6  1  0  0  0  0
 14 11  1  0  0  0  0
 15 14  1  0  0  0  0
 16 18  1  0  0  0  0
 16  1  1  0  0  0  0
 17 16  2  0  0  0  0
 18 19  1  0  0  0  0
 19 20  1  0  0  0  0
 20 21  1  0  0  0  0
 21 22  2  0  0  0  0
 23 22  1  0  0  0  0
 23 26  1  0  0  0  0
 24 23  2  0  0  0  0
 25 20  2  0  0  0  0
 25 24  1  0  0  0  0
 27 26  1  0  0  0  0
 28 24  1  0  0  0  0
 28 29  1  0  0  0  0
M  END
>  <MODEL>
4

>  <REMARK>
 VINA RESULT:    -6.311      2.033      4.937
 INTER + INTRA:         -11.782
 INTER:                  -9.757
 INTRA:                  -2.024
 UNBOUND:                -1.596
  Name = CHEMBL1087259
  13 active torsions:
  status: ('A' for Active; 'I' for Inactive)
    1  A    between atoms: C_1  and  O_2
    2  A    between atoms: O_2  and  C_3
    3  A    between atoms: C_5  and  C_6
    4  A    between atoms: C_6  and  C_7
    5  A    between atoms: C_7  and  C_8
    6  A    between atoms: C_8  and  C_10
    7  A    between atoms: C_10  and  C_11
    8  A    between atoms: C_11  and  C_13
    9  A    between atoms: C_13  and  C_14
   10  A    between atoms: C_14  and  C_15
   11  A    between atoms: C_18  and  O_19
   12  A    between atoms: C_20  and  O_21
   13  A    between atoms: C_25  and  O_26
                            x       y       z     vdW  Elec       q    Type
                         _______ _______ _______ _____ _____    ______ ____

>  <TORSDO>
F 12

>  <SCORE>
-6.311

>  <RMSD_LB>
2.033

>  <RMSD_UB>
4.937

$$$$
CHEMBL1087259
 OpenBabel10172500013D

 29 30  0  0  0  0  0  0  0  0999 V2000
  143.3130  137.5260  151.0190 C   0  0  0  0  0  2  0  0  0  0  0  0
  143.1050  137.7800  152.4870 C   0  0  0  0  0  0  0  0  0  0  0  0
  143.8000  137.2100  153.3300 O   0  0  0  0  0  0  0  0  0  0  0  0
  142.0140  138.7630  152.8760 C   0  0  0  0  0  2  0  0  0  0  0  0
  140.6460  138.0990  152.7530 C   0  0  0  0  0  2  0  0  0  0  0  0
  137.8700  137.8370  155.3640 C   0  0  0  0  0  0  0  0  0  0  0  0
  138.5330  137.9320  154.1360 C   0  0  0  0  0  3  0  0  0  0  0  0
  139.9370  137.9570  154.0750 C   0  0  0  0  0  0  0  0  0  0  0  0
  140.6760  137.8620  155.2600 C   0  0  0  0  0  3  0  0  0  0  0  0
  140.0280  137.7700  156.4900 C   0  0  0  0  0  3  0  0  0  0  0  0
  138.6320  137.7600  156.5370 C   0  0  0  0  0  0  0  0  0  0  0  0
  135.8220  136.6300  155.1620 C   0  0  0  0  0  1  0  0  0  0  0  0
  136.5100  137.8190  155.5250 O   0  0  0  0  0  0  0  0  0  0  0  0
  137.9970  137.6850  157.7480 O   0  0  0  0  0  0  0  0  0  0  0  0
  137.0660  137.7810  157.7950 H   0  0  0  0  0  0  0  0  0  0  0  0
  144.6040  138.0700  150.4620 C   0  0  0  0  0  0  0  0  0  0  0  0
  145.3190  137.4170  149.7050 O   0  0  0  0  0  0  0  0  0  0  0  0
  144.9810  139.4840  150.8570 C   0  0  0  0  0  2  0  0  0  0  0  0
  146.4560  139.7650  150.5920 C   0  0  0  0  0  2  0  0  0  0  0  0
  147.1530  140.3460  151.7950 C   0  0  0  0  0  0  0  0  0  0  0  0
  146.6290  140.1470  153.0840 C   0  0  0  0  0  3  0  0  0  0  0  0
  147.2610  140.6980  154.2050 C   0  0  0  0  0  3  0  0  0  0  0  0
  148.4220  141.4400  154.0320 C   0  0  0  0  0  0  0  0  0  0  0  0
  148.9520  141.6300  152.7590 C   0  0  0  0  0  0  0  0  0  0  0  0
  148.3310  141.0880  151.6400 C   0  0  0  0  0  3  0  0  0  0  0  0
  149.0820  142.0090  155.0870 O   0  0  0  0  0  0  0  0  0  0  0  0
  148.6420  142.6270  155.6360 H   0  0  0  0  0  0  0  0  0  0  0  0
  150.0910  142.3640  152.5960 O   0  0  0  0  0  0  0  0  0  0  0  0
  150.7220  142.4110  153.2870 H   0  0  0  0  0  0  0  0  0  0  0  0
  1  2  1  0  0  0  0
  2  4  1  0  0  0  0
  2  3  2  0  0  0  0
  5  4  1  0  0  0  0
  5  8  1  0  0  0  0
  6 13  1  0  0  0  0
  6 11  1  0  0  0  0
  7  6  2  0  0  0  0
  8  7  1  0  0  0  0
  8  9  2  0  0  0  0
  9 10  1  0  0  0  0
 10 11  2  0  0  0  0
 11 14  1  0  0  0  0
 12 13  1  0  0  0  0
 14 15  1  0  0  0  0
 16 18  1  0  0  0  0
 16  1  1  0  0  0  0
 17 16  2  0  0  0  0
 19 18  1  0  0  0  0
 19 20  1  0  0  0  0
 20 21  1  0  0  0  0
 21 22  2  0  0  0  0
 23 22  1  0  0  0  0
 23 26  1  0  0  0  0
 24 23  2  0  0  0  0
 25 20  2  0  0  0  0
 25 24  1  0  0  0  0
 26 27  1  0  0  0  0
 28 24  1  0  0  0  0
 28 29  1  0  0  0  0
M  END
>  <MODEL>
5

>  <REMARK>
 VINA RESULT:    -6.266      2.881      4.647
 INTER + INTRA:         -11.708
 INTER:                 -10.790
 INTRA:                  -0.918
 UNBOUND:                -1.596
  Name = CHEMBL1087259
  13 active torsions:
  status: ('A' for Active; 'I' for Inactive)
    1  A    between atoms: C_1  and  O_2
    2  A    between atoms: O_2  and  C_3
    3  A    between atoms: C_5  and  C_6
    4  A    between atoms: C_6  and  C_7
    5  A    between atoms: C_7  and  C_8
    6  A    between atoms: C_8  and  C_10
    7  A    between atoms: C_10  and  C_11
    8  A    between atoms: C_11  and  C_13
    9  A    between atoms: C_13  and  C_14
   10  A    between atoms: C_14  and  C_15
   11  A    between atoms: C_18  and  O_19
   12  A    between atoms: C_20  and  O_21
   13  A    between atoms: C_25  and  O_26
                            x       y       z     vdW  Elec       q    Type
                         _______ _______ _______ _____ _____    ______ ____

>  <TORSDO>
F 12

>  <SCORE>
-6.266

>  <RMSD_LB>
2.881

>  <RMSD_UB>
4.647

$$$$
CHEMBL1087259
 OpenBabel10172500013D

 29 30  0  0  0  0  0  0  0  0999 V2000
  136.5270  134.3940  148.2110 C   0  0  0  0  0  2  0  0  0  0  0  0
  137.8870  134.1160  147.6320 C   0  0  0  0  0  0  0  0  0  0  0  0
  138.0130  133.7770  146.4540 O   0  0  0  0  0  0  0  0  0  0  0  0
  139.0830  134.2740  148.5550 C   0  0  0  0  0  2  0  0  0  0  0  0
  139.8780  135.5180  148.1700 C   0  0  0  0  0  2  0  0  0  0  0  0
  138.4490  138.6670  149.7930 C   0  0  0  0  0  0  0  0  0  0  0  0
  138.6200  137.5780  148.9330 C   0  0  0  0  0  3  0  0  0  0  0  0
  139.6740  136.6680  149.1230 C   0  0  0  0  0  0  0  0  0  0  0  0
  140.5450  136.8450  150.2040 C   0  0  0  0  0  3  0  0  0  0  0  0
  140.3870  137.9260  151.0680 C   0  0  0  0  0  3  0  0  0  0  0  0
  139.3440  138.8310  150.8580 C   0  0  0  0  0  0  0  0  0  0  0  0
  137.3880  140.3410  148.4650 C   0  0  0  0  0  1  0  0  0  0  0  0
  137.4630  139.6110  149.6800 O   0  0  0  0  0  0  0  0  0  0  0  0
  139.1990  139.9030  151.6990 O   0  0  0  0  0  0  0  0  0  0  0  0
  139.9540  140.3730  151.9910 H   0  0  0  0  0  0  0  0  0  0  0  0
  135.3810  133.7710  147.4550 C   0  0  0  0  0  0  0  0  0  0  0  0
  135.1280  134.0640  146.2880 O   0  0  0  0  0  0  0  0  0  0  0  0
  134.5530  132.7360  148.1900 C   0  0  0  0  0  2  0  0  0  0  0  0
  133.2390  133.3230  148.6940 C   0  0  0  0  0  2  0  0  0  0  0  0
  133.4150  134.1140  149.9650 C   0  0  0  0  0  0  0  0  0  0  0  0
  133.3860  135.5180  149.9380 C   0  0  0  0  0  3  0  0  0  0  0  0
  133.5660  136.2590  151.1110 C   0  0  0  0  0  3  0  0  0  0  0  0
  133.7680  135.5900  152.3110 C   0  0  0  0  0  0  0  0  0  0  0  0
  133.7860  134.1980  152.3460 C   0  0  0  0  0  0  0  0  0  0  0  0
  133.6090  133.4550  151.1860 C   0  0  0  0  0  3  0  0  0  0  0  0
  133.9560  136.2580  153.4910 O   0  0  0  0  0  0  0  0  0  0  0  0
  133.2930  136.8350  153.8130 H   0  0  0  0  0  0  0  0  0  0  0  0
  133.9900  133.5470  153.5280 O   0  0  0  0  0  0  0  0  0  0  0  0
  133.8510  133.9950  154.3390 H   0  0  0  0  0  0  0  0  0  0  0  0
  2  1  1  0  0  0  0
  2  4  1  0  0  0  0
  3  2  2  0  0  0  0
  5  4  1  0  0  0  0
  5  8  1  0  0  0  0
  6 11  1  0  0  0  0
  7  8  1  0  0  0  0
  7  6  2  0  0  0  0
  8  9  2  0  0  0  0
  9 10  1  0  0  0  0
 11 10  2  0  0  0  0
 11 14  1  0  0  0  0
 12 13  1  0  0  0  0
 13  6  1  0  0  0  0
 14 15  1  0  0  0  0
 16 18  1  0  0  0  0
 16  1  1  0  0  0  0
 17 16  2  0  0  0  0
 18 19  1  0  0  0  0
 19 20  1  0  0  0  0
 20 25  1  0  0  0  0
 21 20  2  0  0  0  0
 21 22  1  0  0  0  0
 22 23  2  0  0  0  0
 23 24  1  0  0  0  0
 23 26  1  0  0  0  0
 24 28  1  0  0  0  0
 25 24  2  0  0  0  0
 26 27  1  0  0  0  0
 28 29  1  0  0  0  0
M  END
>  <MODEL>
6

>  <REMARK>
 VINA RESULT:    -6.186      8.000     11.737
 INTER + INTRA:         -11.580
 INTER:                 -10.474
 INTRA:                  -1.106
 UNBOUND:                -1.596
  Name = CHEMBL1087259
  13 active torsions:
  status: ('A' for Active; 'I' for Inactive)
    1  A    between atoms: C_1  and  O_2
    2  A    between atoms: O_2  and  C_3
    3  A    between atoms: C_5  and  C_6
    4  A    between atoms: C_6  and  C_7
    5  A    between atoms: C_7  and  C_8
    6  A    between atoms: C_8  and  C_10
    7  A    between atoms: C_10  and  C_11
    8  A    between atoms: C_11  and  C_13
    9  A    between atoms: C_13  and  C_14
   10  A    between atoms: C_14  and  C_15
   11  A    between atoms: C_18  and  O_19
   12  A    between atoms: C_20  and  O_21
   13  A    between atoms: C_25  and  O_26
                            x       y       z     vdW  Elec       q    Type
                         _______ _______ _______ _____ _____    ______ ____

>  <TORSDO>
F 12

>  <SCORE>
-6.186

>  <RMSD_LB>
8.000

>  <RMSD_UB>
11.737

$$$$
CHEMBL1087259
 OpenBabel10172500013D

 29 30  0  0  0  0  0  0  0  0999 V2000
  139.2680  138.6360  148.5390 C   0  0  0  0  0  2  0  0  0  0  0  0
  140.1060  139.2570  149.6230 C   0  0  0  0  0  0  0  0  0  0  0  0
  141.1970  139.7660  149.3620 O   0  0  0  0  0  0  0  0  0  0  0  0
  139.5500  139.2290  151.0360 C   0  0  0  0  0  2  0  0  0  0  0  0
  140.2680  138.1630  151.8580 C   0  0  0  0  0  2  0  0  0  0  0  0
  137.9060  137.9110  154.8500 C   0  0  0  0  0  0  0  0  0  0  0  0
  138.3840  137.9610  153.5360 C   0  0  0  0  0  3  0  0  0  0  0  0
  139.7600  138.0690  153.2740 C   0  0  0  0  0  0  0  0  0  0  0  0
  140.6610  138.1000  154.3450 C   0  0  0  0  0  3  0  0  0  0  0  0
  140.1980  138.0510  155.6580 C   0  0  0  0  0  3  0  0  0  0  0  0
  138.8260  137.9590  155.9040 C   0  0  0  0  0  0  0  0  0  0  0  0
  135.9750  136.5390  155.1400 C   0  0  0  0  0  1  0  0  0  0  0  0
  136.5850  137.8190  155.2040 O   0  0  0  0  0  0  0  0  0  0  0  0
  138.3720  137.9280  157.1960 O   0  0  0  0  0  0  0  0  0  0  0  0
  138.8100  137.4010  157.8340 H   0  0  0  0  0  0  0  0  0  0  0  0
  139.0830  137.1440  148.6610 C   0  0  0  0  0  0  0  0  0  0  0  0
  140.0260  136.3780  148.8420 O   0  0  0  0  0  0  0  0  0  0  0  0
  137.6630  136.6190  148.5760 C   0  0  0  0  0  2  0  0  0  0  0  0
  136.7620  137.2670  149.6210 C   0  0  0  0  0  2  0  0  0  0  0  0
  135.9360  136.2540  150.3710 C   0  0  0  0  0  0  0  0  0  0  0  0
  136.5550  135.3170  151.2160 C   0  0  0  0  0  3  0  0  0  0  0  0
  135.7970  134.3620  151.9020 C   0  0  0  0  0  3  0  0  0  0  0  0
  134.4170  134.3540  151.7460 C   0  0  0  0  0  0  0  0  0  0  0  0
  133.7970  135.2870  150.9200 C   0  0  0  0  0  0  0  0  0  0  0  0
  134.5420  136.2380  150.2340 C   0  0  0  0  0  3  0  0  0  0  0  0
  133.6210  133.4420  152.3850 O   0  0  0  0  0  0  0  0  0  0  0  0
  133.0690  132.8720  151.8870 H   0  0  0  0  0  0  0  0  0  0  0  0
  132.4400  135.2690  150.7680 O   0  0  0  0  0  0  0  0  0  0  0  0
  132.0550  134.8190  150.0420 H   0  0  0  0  0  0  0  0  0  0  0  0
  1 16  1  0  0  0  0
  1  2  1  0  0  0  0
  2  4  1  0  0  0  0
  3  2  2  0  0  0  0
  4  5  1  0  0  0  0
  5  8  1  0  0  0  0
  6 13  1  0  0  0  0
  6 11  1  0  0  0  0
  7  6  2  0  0  0  0
  8  7  1  0  0  0  0
  8  9  2  0  0  0  0
  9 10  1  0  0  0  0
 10 11  2  0  0  0  0
 11 14  1  0  0  0  0
 12 13  1  0  0  0  0
 14 15  1  0  0  0  0
 16 17  2  0  0  0  0
 18 16  1  0  0  0  0
 18 19  1  0  0  0  0
 19 20  1  0  0  0  0
 20 21  1  0  0  0  0
 21 22  2  0  0  0  0
 23 22  1  0  0  0  0
 23 26  1  0  0  0  0
 24 23  2  0  0  0  0
 25 20  2  0  0  0  0
 25 24  1  0  0  0  0
 27 26  1  0  0  0  0
 28 24  1  0  0  0  0
 29 28  1  0  0  0  0
M  END
>  <MODEL>
7

>  <REMARK>
 VINA RESULT:    -6.099      6.443     10.282
 INTER + INTRA:         -11.439
 INTER:                  -9.896
 INTRA:                  -1.543
 UNBOUND:                -1.596
  Name = CHEMBL1087259
  13 active torsions:
  status: ('A' for Active; 'I' for Inactive)
    1  A    between atoms: C_1  and  O_2
    2  A    between atoms: O_2  and  C_3
    3  A    between atoms: C_5  and  C_6
    4  A    between atoms: C_6  and  C_7
    5  A    between atoms: C_7  and  C_8
    6  A    between atoms: C_8  and  C_10
    7  A    between atoms: C_10  and  C_11
    8  A    between atoms: C_11  and  C_13
    9  A    between atoms: C_13  and  C_14
   10  A    between atoms: C_14  and  C_15
   11  A    between atoms: C_18  and  O_19
   12  A    between atoms: C_20  and  O_21
   13  A    between atoms: C_25  and  O_26
                            x       y       z     vdW  Elec       q    Type
                         _______ _______ _______ _____ _____    ______ ____

>  <TORSDO>
F 12

>  <SCORE>
-6.099

>  <RMSD_LB>
6.443

>  <RMSD_UB>
10.282

$$$$
CHEMBL1087259
 OpenBabel10172500013D

 29 30  0  0  0  0  0  0  0  0999 V2000
  144.8640  138.7850  148.8220 C   0  0  0  0  0  2  0  0  0  0  0  0
  144.4630  138.6610  147.3770 C   0  0  0  0  0  0  0  0  0  0  0  0
  144.0180  139.6310  146.7620 O   0  0  0  0  0  0  0  0  0  0  0  0
  144.6330  137.3020  146.7210 C   0  0  0  0  0  2  0  0  0  0  0  0
  146.0420  137.1720  146.1480 C   0  0  0  0  0  2  0  0  0  0  0  0
  148.5160  135.3060  148.3810 C   0  0  0  0  0  0  0  0  0  0  0  0
  147.7500  136.3300  147.8150 C   0  0  0  0  0  3  0  0  0  0  0  0
  146.8370  136.0600  146.7820 C   0  0  0  0  0  0  0  0  0  0  0  0
  146.6780  134.7430  146.3340 C   0  0  0  0  0  3  0  0  0  0  0  0
  147.4370  133.7140  146.8890 C   0  0  0  0  0  3  0  0  0  0  0  0
  148.3510  134.0000  147.9050 C   0  0  0  0  0  0  0  0  0  0  0  0
  148.9590  135.8690  150.6570 C   0  0  0  0  0  1  0  0  0  0  0  0
  149.4390  135.4740  149.3800 O   0  0  0  0  0  0  0  0  0  0  0  0
  149.1080  132.9890  148.4380 O   0  0  0  0  0  0  0  0  0  0  0  0
  149.7370  132.5450  147.9050 H   0  0  0  0  0  0  0  0  0  0  0  0
  145.0060  140.2010  149.3180 C   0  0  0  0  0  0  0  0  0  0  0  0
  144.1190  140.7670  149.9540 O   0  0  0  0  0  0  0  0  0  0  0  0
  146.3150  140.9060  149.0190 C   0  0  0  0  0  2  0  0  0  0  0  0
  146.3960  142.2580  149.7200 C   0  0  0  0  0  2  0  0  0  0  0  0
  146.9820  142.1490  151.1050 C   0  0  0  0  0  0  0  0  0  0  0  0
  148.3570  141.9150  151.2780 C   0  0  0  0  0  3  0  0  0  0  0  0
  148.9050  141.7960  152.5590 C   0  0  0  0  0  3  0  0  0  0  0  0
  148.0760  141.9200  153.6660 C   0  0  0  0  0  0  0  0  0  0  0  0
  146.7150  142.1640  153.5010 C   0  0  0  0  0  0  0  0  0  0  0  0
  146.1610  142.2830  152.2320 C   0  0  0  0  0  3  0  0  0  0  0  0
  148.5510  141.8070  154.9440 O   0  0  0  0  0  0  0  0  0  0  0  0
  148.4570  142.5210  155.5430 H   0  0  0  0  0  0  0  0  0  0  0  0
  145.9040  142.2800  154.5930 O   0  0  0  0  0  0  0  0  0  0  0  0
  145.9700  143.0330  155.1470 H   0  0  0  0  0  0  0  0  0  0  0  0
  1 16  1  0  0  0  0
  2  1  1  0  0  0  0
  3  2  2  0  0  0  0
  4  2  1  0  0  0  0
  5  4  1  0  0  0  0
  5  8  1  0  0  0  0
  6 13  1  0  0  0  0
  7  6  2  0  0  0  0
  8  7  1  0  0  0  0
  9  8  2  0  0  0  0
  9 10  1  0  0  0  0
 10 11  2  0  0  0  0
 11  6  1  0  0  0  0
 11 14  1  0  0  0  0
 13 12  1  0  0  0  0
 15 14  1  0  0  0  0
 16 17  2  0  0  0  0
 18 16  1  0  0  0  0
 18 19  1  0  0  0  0
 19 20  1  0  0  0  0
 20 21  2  0  0  0  0
 20 25  1  0  0  0  0
 21 22  1  0  0  0  0
 22 23  2  0  0  0  0
 23 26  1  0  0  0  0
 24 23  1  0  0  0  0
 24 28  1  0  0  0  0
 25 24  2  0  0  0  0
 26 27  1  0  0  0  0
 28 29  1  0  0  0  0
M  END
>  <MODEL>
8

>  <REMARK>
 VINA RESULT:    -5.901      3.045      5.059
 INTER + INTRA:         -11.120
 INTER:                 -10.114
 INTRA:                  -1.006
 UNBOUND:                -1.596
  Name = CHEMBL1087259
  13 active torsions:
  status: ('A' for Active; 'I' for Inactive)
    1  A    between atoms: C_1  and  O_2
    2  A    between atoms: O_2  and  C_3
    3  A    between atoms: C_5  and  C_6
    4  A    between atoms: C_6  and  C_7
    5  A    between atoms: C_7  and  C_8
    6  A    between atoms: C_8  and  C_10
    7  A    between atoms: C_10  and  C_11
    8  A    between atoms: C_11  and  C_13
    9  A    between atoms: C_13  and  C_14
   10  A    between atoms: C_14  and  C_15
   11  A    between atoms: C_18  and  O_19
   12  A    between atoms: C_20  and  O_21
   13  A    between atoms: C_25  and  O_26
                            x       y       z     vdW  Elec       q    Type
                         _______ _______ _______ _____ _____    ______ ____

>  <TORSDO>
F 12

>  <SCORE>
-5.901

>  <RMSD_LB>
3.045

>  <RMSD_UB>
5.059

$$$$
CHEMBL1087259
 OpenBabel10172500013D

 29 30  0  0  0  0  0  0  0  0999 V2000
  136.5400  133.6400  147.2070 C   0  0  0  0  0  2  0  0  0  0  0  0
  137.8850  134.3130  147.2030 C   0  0  0  0  0  0  0  0  0  0  0  0
  138.4160  134.6550  146.1450 O   0  0  0  0  0  0  0  0  0  0  0  0
  138.5490  134.5510  148.5480 C   0  0  0  0  0  2  0  0  0  0  0  0
  139.3170  135.8700  148.5250 C   0  0  0  0  0  2  0  0  0  0  0  0
  140.3340  137.8790  151.6110 C   0  0  0  0  0  0  0  0  0  0  0  0
  140.3900  137.2150  150.3820 C   0  0  0  0  0  3  0  0  0  0  0  0
  139.2430  136.6190  149.8310 C   0  0  0  0  0  0  0  0  0  0  0  0
  138.0250  136.7160  150.5140 C   0  0  0  0  0  3  0  0  0  0  0  0
  137.9550  137.3750  151.7400 C   0  0  0  0  0  3  0  0  0  0  0  0
  139.1070  137.9490  152.2820 C   0  0  0  0  0  0  0  0  0  0  0  0
  142.4080  137.6320  152.7630 C   0  0  0  0  0  1  0  0  0  0  0  0
  141.3990  138.4770  152.2320 O   0  0  0  0  0  0  0  0  0  0  0  0
  139.0400  138.5820  153.4960 O   0  0  0  0  0  0  0  0  0  0  0  0
  139.7930  138.6070  154.0520 H   0  0  0  0  0  0  0  0  0  0  0  0
  135.4130  134.4790  146.6620 C   0  0  0  0  0  0  0  0  0  0  0  0
  134.5370  134.0130  145.9370 O   0  0  0  0  0  0  0  0  0  0  0  0
  135.3860  135.9400  147.0680 C   0  0  0  0  0  2  0  0  0  0  0  0
  134.0220  136.3440  147.6160 C   0  0  0  0  0  2  0  0  0  0  0  0
  133.7950  135.8370  149.0180 C   0  0  0  0  0  0  0  0  0  0  0  0
  134.5340  136.3620  150.0920 C   0  0  0  0  0  3  0  0  0  0  0  0
  134.3430  135.8840  151.3920 C   0  0  0  0  0  3  0  0  0  0  0  0
  133.4030  134.8860  151.6150 C   0  0  0  0  0  0  0  0  0  0  0  0
  132.6600  134.3700  150.5580 C   0  0  0  0  0  0  0  0  0  0  0  0
  132.8440  134.8370  149.2630 C   0  0  0  0  0  3  0  0  0  0  0  0
  133.1740  134.3730  152.8630 O   0  0  0  0  0  0  0  0  0  0  0  0
  132.8960  134.9360  153.5580 H   0  0  0  0  0  0  0  0  0  0  0  0
  131.7410  133.3850  150.7840 O   0  0  0  0  0  0  0  0  0  0  0  0
  131.0070  133.5490  151.3430 H   0  0  0  0  0  0  0  0  0  0  0  0
  2  1  1  0  0  0  0
  2  4  1  0  0  0  0
  3  2  2  0  0  0  0
  5  4  1  0  0  0  0
  5  8  1  0  0  0  0
  6 13  1  0  0  0  0
  6 11  1  0  0  0  0
  7  6  2  0  0  0  0
  8  7  1  0  0  0  0
  8  9  2  0  0  0  0
  9 10  1  0  0  0  0
 10 11  2  0  0  0  0
 11 14  1  0  0  0  0
 13 12  1  0  0  0  0
 14 15  1  0  0  0  0
 16 18  1  0  0  0  0
 16  1  1  0  0  0  0
 17 16  2  0  0  0  0
 18 19  1  0  0  0  0
 19 20  1  0  0  0  0
 20 25  2  0  0  0  0
 20 21  1  0  0  0  0
 21 22  2  0  0  0  0
 22 23  1  0  0  0  0
 23 26  1  0  0  0  0
 24 28  1  0  0  0  0
 24 23  2  0  0  0  0
 25 24  1  0  0  0  0
 26 27  1  0  0  0  0
 28 29  1  0  0  0  0
M  END
>  <MODEL>
9

>  <REMARK>
 VINA RESULT:    -5.805      7.966     11.658
 INTER + INTRA:         -10.964
 INTER:                  -9.368
 INTRA:                  -1.596
 UNBOUND:                -1.596
  Name = CHEMBL1087259
  13 active torsions:
  status: ('A' for Active; 'I' for Inactive)
    1  A    between atoms: C_1  and  O_2
    2  A    between atoms: O_2  and  C_3
    3  A    between atoms: C_5  and  C_6
    4  A    between atoms: C_6  and  C_7
    5  A    between atoms: C_7  and  C_8
    6  A    between atoms: C_8  and  C_10
    7  A    between atoms: C_10  and  C_11
    8  A    between atoms: C_11  and  C_13
    9  A    between atoms: C_13  and  C_14
   10  A    between atoms: C_14  and  C_15
   11  A    between atoms: C_18  and  O_19
   12  A    between atoms: C_20  and  O_21
   13  A    between atoms: C_25  and  O_26
                            x       y       z     vdW  Elec       q    Type
                         _______ _______ _______ _____ _____    ______ ____

>  <TORSDO>
F 12

>  <SCORE>
-5.805

>  <RMSD_LB>
7.966

>  <RMSD_UB>
11.658

$$$$
