CHEMBL4227901
 OpenBabel10162523583D

 27 27  0  0  0  0  0  0  0  0999 V2000
  145.6510  140.5340  148.8100 C   0  0  0  0  0  0  0  0  0  0  0  0
  146.6620  139.9500  148.4250 O   0  0  0  0  0  0  0  0  0  0  0  0
  145.6690  141.7930  149.3660 N   0  0  0  0  0  0  0  0  0  0  0  0
  144.8170  142.2090  149.6350 H   0  0  0  0  0  0  0  0  0  0  0  0
  144.2630  139.9190  148.6620 C   0  0  0  0  0  2  0  0  0  0  0  0
  144.0810  138.9700  149.7150 O   0  0  0  0  0  0  0  0  0  0  0  0
  143.3560  139.4260  150.7690 C   0  0  0  0  0  0  0  0  0  0  0  0
  143.5280  140.5030  151.3220 O   0  0  0  0  0  0  0  0  0  0  0  0
  142.2100  138.4910  151.0680 C   0  0  0  0  0  2  0  0  0  0  0  0
  142.5750  137.3250  151.9780 C   0  0  0  0  0  2  0  0  0  0  0  0
  143.5960  137.7190  153.0450 C   0  0  0  0  0  2  0  0  0  0  0  0
  144.7400  136.7070  153.1050 C   0  0  0  0  0  2  0  0  0  0  0  0
  145.7390  137.0710  154.2000 C   0  0  0  0  0  2  0  0  0  0  0  0
  147.1700  137.0360  153.6670 C   0  0  0  0  0  2  0  0  0  0  0  0
  147.2000  138.7040  151.7880 C   0  0  0  0  0  1  0  0  0  0  0  0
  147.2040  137.2320  152.1510 C   0  0  0  0  0  2  0  0  0  0  0  0
  146.9050  142.5230  149.5680 C   0  0  0  0  0  2  0  0  0  0  0  0
  147.4350  142.3580  150.9700 C   0  0  0  0  0  0  0  0  0  0  0  0
  148.8140  142.3040  151.1980 C   0  0  0  0  0  3  0  0  0  0  0  0
  149.3130  142.0950  152.4860 C   0  0  0  0  0  3  0  0  0  0  0  0
  148.4360  141.9480  153.5650 C   0  0  0  0  0  0  0  0  0  0  0  0
  147.0550  142.0150  153.3660 C   0  0  0  0  0  0  0  0  0  0  0  0
  146.5670  142.2270  152.0680 C   0  0  0  0  0  3  0  0  0  0  0  0
  148.9770  141.7380  154.8040 O   0  0  0  0  0  0  0  0  0  0  0  0
  149.6260  142.3260  155.1380 H   0  0  0  0  0  0  0  0  0  0  0  0
  146.0550  141.8880  154.3010 O   0  0  0  0  0  0  0  0  0  0  0  0
  145.4670  140.6070  154.4800 C   0  0  0  0  0  1  0  0  0  0  0  0
  1  3  1  0  0  0  0
  2  1  2  0  0  0  0
  3 17  1  0  0  0  0
  3  4  1  0  0  0  0
  5  1  1  0  0  0  0
  5  6  1  0  0  0  0
  6  7  1  0  0  0  0
  7  9  1  0  0  0  0
  7  8  2  0  0  0  0
  9 10  1  0  0  0  0
 10 11  1  0  0  0  0
 11 12  1  0  0  0  0
 12 13  1  0  0  0  0
 14 13  1  0  0  0  0
 15 16  1  0  0  0  0
 16 14  1  0  0  0  0
 17 18  1  0  0  0  0
 18 19  2  0  0  0  0
 18 23  1  0  0  0  0
 19 20  1  0  0  0  0
 20 21  2  0  0  0  0
 21 24  1  0  0  0  0
 22 21  1  0  0  0  0
 22 26  1  0  0  0  0
 23 22  2  0  0  0  0
 24 25  1  0  0  0  0
 26 27  1  0  0  0  0
M  END
>  <MODEL>
1

>  <REMARK>
 VINA RESULT:    -6.017      0.000      0.000
 INTER + INTRA:         -12.108
 INTER:                 -10.285
 INTRA:                  -1.823
 UNBOUND:                -1.342
  Name = CHEMBL4227901
  16 active torsions:
  status: ('A' for Active; 'I' for Inactive)
    1  A    between atoms: C_1  and  C_2
    2  A    between atoms: C_2  and  C_3
    3  A    between atoms: C_3  and  C_4
    4  A    between atoms: C_4  and  C_5
    5  A    between atoms: C_5  and  C_6
    6  A    between atoms: C_6  and  C_7
    7  A    between atoms: C_7  and  C_8
    8  A    between atoms: C_8  and  C_9
    9  A    between atoms: C_9  and  O_11
   10  A    between atoms: O_11  and  C_12
   11  A    between atoms: C_12  and  C_13
   12  A    between atoms: N_15  and  C_16
   13  A    between atoms: C_16  and  C_17
   14  A    between atoms: C_20  and  O_21
   15  A    between atoms: C_22  and  O_23
   16  A    between atoms: O_23  and  C_24
                            x       y       z     vdW  Elec       q    Type
                         _______ _______ _______ _____ _____    ______ ____

>  <TORSDO>
F 14

>  <SCORE>
-6.017

>  <RMSD_LB>
0.000

>  <RMSD_UB>
0.000

$$$$
CHEMBL4227901
 OpenBabel10162523583D

 27 27  0  0  0  0  0  0  0  0999 V2000
  145.4080  136.4860  151.0000 C   0  0  0  0  0  0  0  0  0  0  0  0
  145.5400  135.8470  149.9570 O   0  0  0  0  0  0  0  0  0  0  0  0
  144.1950  136.9570  151.4500 N   0  0  0  0  0  0  0  0  0  0  0  0
  144.1600  137.4450  152.3050 H   0  0  0  0  0  0  0  0  0  0  0  0
  146.5890  136.7790  151.9180 C   0  0  0  0  0  2  0  0  0  0  0  0
  146.7950  138.1930  151.9420 O   0  0  0  0  0  0  0  0  0  0  0  0
  147.0980  138.7000  153.1650 C   0  0  0  0  0  0  0  0  0  0  0  0
  148.0770  138.3870  153.8280 O   0  0  0  0  0  0  0  0  0  0  0  0
  146.1480  139.8140  153.5270 C   0  0  0  0  0  2  0  0  0  0  0  0
  146.8280  141.1450  153.8240 C   0  0  0  0  0  2  0  0  0  0  0  0
  146.2670  142.2860  152.9760 C   0  0  0  0  0  2  0  0  0  0  0  0
  146.9280  142.3170  151.5990 C   0  0  0  0  0  2  0  0  0  0  0  0
  145.8850  142.2400  150.4870 C   0  0  0  0  0  2  0  0  0  0  0  0
  145.9690  140.9040  149.7510 C   0  0  0  0  0  2  0  0  0  0  0  0
  143.7450  140.4500  150.8270 C   0  0  0  0  0  1  0  0  0  0  0  0
  144.5870  140.2750  149.5780 C   0  0  0  0  0  2  0  0  0  0  0  0
  142.9700  136.7540  150.7020 C   0  0  0  0  0  2  0  0  0  0  0  0
  141.7680  137.3020  151.4290 C   0  0  0  0  0  0  0  0  0  0  0  0
  141.8960  137.7850  152.7360 C   0  0  0  0  0  3  0  0  0  0  0  0
  140.7780  138.2410  153.4370 C   0  0  0  0  0  3  0  0  0  0  0  0
  139.5160  138.2320  152.8340 C   0  0  0  0  0  0  0  0  0  0  0  0
  139.3650  137.7710  151.5240 C   0  0  0  0  0  0  0  0  0  0  0  0
  140.4960  137.3170  150.8300 C   0  0  0  0  0  3  0  0  0  0  0  0
  138.4530  138.6830  153.5680 O   0  0  0  0  0  0  0  0  0  0  0  0
  137.8660  138.0710  153.9670 H   0  0  0  0  0  0  0  0  0  0  0  0
  138.2100  137.6850  150.7820 O   0  0  0  0  0  0  0  0  0  0  0  0
  137.9750  138.6810  149.7950 C   0  0  0  0  0  1  0  0  0  0  0  0
  1  3  1  0  0  0  0
  1  5  1  0  0  0  0
  2  1  2  0  0  0  0
  3  4  1  0  0  0  0
  5  6  1  0  0  0  0
  6  7  1  0  0  0  0
  7  9  1  0  0  0  0
  7  8  2  0  0  0  0
  9 10  1  0  0  0  0
 11 10  1  0  0  0  0
 12 11  1  0  0  0  0
 13 12  1  0  0  0  0
 14 13  1  0  0  0  0
 16 14  1  0  0  0  0
 16 15  1  0  0  0  0
 17 18  1  0  0  0  0
 17  3  1  0  0  0  0
 18 19  1  0  0  0  0
 19 20  2  0  0  0  0
 21 20  1  0  0  0  0
 21 24  1  0  0  0  0
 22 21  2  0  0  0  0
 23 18  2  0  0  0  0
 23 22  1  0  0  0  0
 24 25  1  0  0  0  0
 26 22  1  0  0  0  0
 27 26  1  0  0  0  0
M  END
>  <MODEL>
2

>  <REMARK>
 VINA RESULT:    -5.921      2.893      6.923
 INTER + INTRA:         -11.936
 INTER:                 -10.063
 INTRA:                  -1.873
 UNBOUND:                -1.342
  Name = CHEMBL4227901
  16 active torsions:
  status: ('A' for Active; 'I' for Inactive)
    1  A    between atoms: C_1  and  C_2
    2  A    between atoms: C_2  and  C_3
    3  A    between atoms: C_3  and  C_4
    4  A    between atoms: C_4  and  C_5
    5  A    between atoms: C_5  and  C_6
    6  A    between atoms: C_6  and  C_7
    7  A    between atoms: C_7  and  C_8
    8  A    between atoms: C_8  and  C_9
    9  A    between atoms: C_9  and  O_11
   10  A    between atoms: O_11  and  C_12
   11  A    between atoms: C_12  and  C_13
   12  A    between atoms: N_15  and  C_16
   13  A    between atoms: C_16  and  C_17
   14  A    between atoms: C_20  and  O_21
   15  A    between atoms: C_22  and  O_23
   16  A    between atoms: O_23  and  C_24
                            x       y       z     vdW  Elec       q    Type
                         _______ _______ _______ _____ _____    ______ ____

>  <TORSDO>
F 14

>  <SCORE>
-5.921

>  <RMSD_LB>
2.893

>  <RMSD_UB>
6.923

$$$$
CHEMBL4227901
 OpenBabel10162523583D

 27 27  0  0  0  0  0  0  0  0999 V2000
  144.8690  137.1270  148.7900 C   0  0  0  0  0  0  0  0  0  0  0  0
  145.3500  135.9980  148.8680 O   0  0  0  0  0  0  0  0  0  0  0  0
  143.8160  137.5570  149.5660 N   0  0  0  0  0  0  0  0  0  0  0  0
  143.4930  138.4820  149.4640 H   0  0  0  0  0  0  0  0  0  0  0  0
  145.4340  138.1780  147.8400 C   0  0  0  0  0  2  0  0  0  0  0  0
  146.3640  138.9820  148.5670 O   0  0  0  0  0  0  0  0  0  0  0  0
  146.2520  140.3180  148.3460 C   0  0  0  0  0  0  0  0  0  0  0  0
  146.3540  140.8570  147.2530 O   0  0  0  0  0  0  0  0  0  0  0  0
  145.8290  141.0300  149.6080 C   0  0  0  0  0  2  0  0  0  0  0  0
  146.6500  142.2720  149.9300 C   0  0  0  0  0  2  0  0  0  0  0  0
  147.1550  142.2770  151.3720 C   0  0  0  0  0  2  0  0  0  0  0  0
  145.9880  142.2740  152.3590 C   0  0  0  0  0  2  0  0  0  0  0  0
  146.4580  141.9130  153.7650 C   0  0  0  0  0  2  0  0  0  0  0  0
  147.9840  141.8810  153.8390 C   0  0  0  0  0  2  0  0  0  0  0  0
  147.3490  139.6290  154.7540 C   0  0  0  0  0  1  0  0  0  0  0  0
  148.4910  140.5100  154.2850 C   0  0  0  0  0  2  0  0  0  0  0  0
  143.1700  136.6860  150.5280 C   0  0  0  0  0  2  0  0  0  0  0  0
  142.5730  137.4600  151.6760 C   0  0  0  0  0  0  0  0  0  0  0  0
  143.4010  138.1650  152.5560 C   0  0  0  0  0  3  0  0  0  0  0  0
  142.8620  138.8370  153.6550 C   0  0  0  0  0  3  0  0  0  0  0  0
  141.4810  138.8210  153.8820 C   0  0  0  0  0  0  0  0  0  0  0  0
  140.6310  138.1390  153.0090 C   0  0  0  0  0  0  0  0  0  0  0  0
  141.1860  137.4690  151.9070 C   0  0  0  0  0  3  0  0  0  0  0  0
  141.0060  139.4890  154.9770 O   0  0  0  0  0  0  0  0  0  0  0  0
  140.3880  140.1860  154.8690 H   0  0  0  0  0  0  0  0  0  0  0  0
  139.2640  138.0140  153.0790 O   0  0  0  0  0  0  0  0  0  0  0  0
  138.5630  137.6680  151.8920 C   0  0  0  0  0  1  0  0  0  0  0  0
  1  2  2  0  0  0  0
  1  3  1  0  0  0  0
  3 17  1  0  0  0  0
  4  3  1  0  0  0  0
  5  6  1  0  0  0  0
  5  1  1  0  0  0  0
  7  6  1  0  0  0  0
  7  9  1  0  0  0  0
  8  7  2  0  0  0  0
  9 10  1  0  0  0  0
 10 11  1  0  0  0  0
 11 12  1  0  0  0  0
 12 13  1  0  0  0  0
 13 14  1  0  0  0  0
 14 16  1  0  0  0  0
 16 15  1  0  0  0  0
 17 18  1  0  0  0  0
 18 23  2  0  0  0  0
 18 19  1  0  0  0  0
 19 20  2  0  0  0  0
 20 21  1  0  0  0  0
 21 24  1  0  0  0  0
 22 26  1  0  0  0  0
 22 21  2  0  0  0  0
 23 22  1  0  0  0  0
 25 24  1  0  0  0  0
 27 26  1  0  0  0  0
M  END
>  <MODEL>
3

>  <REMARK>
 VINA RESULT:    -5.870      2.820      5.910
 INTER + INTRA:         -11.844
 INTER:                 -10.575
 INTRA:                  -1.270
 UNBOUND:                -1.342
  Name = CHEMBL4227901
  16 active torsions:
  status: ('A' for Active; 'I' for Inactive)
    1  A    between atoms: C_1  and  C_2
    2  A    between atoms: C_2  and  C_3
    3  A    between atoms: C_3  and  C_4
    4  A    between atoms: C_4  and  C_5
    5  A    between atoms: C_5  and  C_6
    6  A    between atoms: C_6  and  C_7
    7  A    between atoms: C_7  and  C_8
    8  A    between atoms: C_8  and  C_9
    9  A    between atoms: C_9  and  O_11
   10  A    between atoms: O_11  and  C_12
   11  A    between atoms: C_12  and  C_13
   12  A    between atoms: N_15  and  C_16
   13  A    between atoms: C_16  and  C_17
   14  A    between atoms: C_20  and  O_21
   15  A    between atoms: C_22  and  O_23
   16  A    between atoms: O_23  and  C_24
                            x       y       z     vdW  Elec       q    Type
                         _______ _______ _______ _____ _____    ______ ____

>  <TORSDO>
F 14

>  <SCORE>
-5.870

>  <RMSD_LB>
2.820

>  <RMSD_UB>
5.910

$$$$
CHEMBL4227901
 OpenBabel10162523583D

 27 27  0  0  0  0  0  0  0  0999 V2000
  134.3910  134.9500  152.7630 C   0  0  0  0  0  0  0  0  0  0  0  0
  135.1330  134.0000  152.5210 O   0  0  0  0  0  0  0  0  0  0  0  0
  134.1150  135.3900  154.0390 N   0  0  0  0  0  0  0  0  0  0  0  0
  133.5260  136.1690  154.1590 H   0  0  0  0  0  0  0  0  0  0  0  0
  133.7340  135.7610  151.6510 C   0  0  0  0  0  2  0  0  0  0  0  0
  132.6270  135.0110  151.1470 O   0  0  0  0  0  0  0  0  0  0  0  0
  132.8740  134.3450  149.9900 C   0  0  0  0  0  0  0  0  0  0  0  0
  132.1800  133.4430  149.5400 O   0  0  0  0  0  0  0  0  0  0  0  0
  134.0330  134.9710  149.2540 C   0  0  0  0  0  2  0  0  0  0  0  0
  134.2770  134.3960  147.8650 C   0  0  0  0  0  2  0  0  0  0  0  0
  135.6400  133.7140  147.7500 C   0  0  0  0  0  2  0  0  0  0  0  0
  136.4800  134.3580  146.6480 C   0  0  0  0  0  2  0  0  0  0  0  0
  137.3880  133.3290  145.9780 C   0  0  0  0  0  2  0  0  0  0  0  0
  136.6730  131.9880  145.8250 C   0  0  0  0  0  2  0  0  0  0  0  0
  137.0580  132.6430  143.4300 C   0  0  0  0  0  1  0  0  0  0  0  0
  136.6830  131.5150  144.3720 C   0  0  0  0  0  2  0  0  0  0  0  0
  134.6690  134.7370  155.2090 C   0  0  0  0  0  2  0  0  0  0  0  0
  135.5820  135.6510  155.9860 C   0  0  0  0  0  0  0  0  0  0  0  0
  135.9280  135.3430  157.3060 C   0  0  0  0  0  3  0  0  0  0  0  0
  136.7270  136.2130  158.0520 C   0  0  0  0  0  3  0  0  0  0  0  0
  137.2010  137.3990  157.4810 C   0  0  0  0  0  0  0  0  0  0  0  0
  136.8840  137.7200  156.1590 C   0  0  0  0  0  0  0  0  0  0  0  0
  136.0810  136.8370  155.4200 C   0  0  0  0  0  3  0  0  0  0  0  0
  137.9730  138.2180  158.2580 O   0  0  0  0  0  0  0  0  0  0  0  0
  138.2170  137.9510  159.1220 H   0  0  0  0  0  0  0  0  0  0  0  0
  137.2540  138.8350  155.4440 O   0  0  0  0  0  0  0  0  0  0  0  0
  138.3920  138.7390  154.5990 C   0  0  0  0  0  1  0  0  0  0  0  0
  1  3  1  0  0  0  0
  2  1  2  0  0  0  0
  3  4  1  0  0  0  0
  3 17  1  0  0  0  0
  5  1  1  0  0  0  0
  6  5  1  0  0  0  0
  7  6  1  0  0  0  0
  8  7  2  0  0  0  0
  9  7  1  0  0  0  0
 10  9  1  0  0  0  0
 11 10  1  0  0  0  0
 12 11  1  0  0  0  0
 13 12  1  0  0  0  0
 14 13  1  0  0  0  0
 15 16  1  0  0  0  0
 16 14  1  0  0  0  0
 17 18  1  0  0  0  0
 18 19  1  0  0  0  0
 19 20  2  0  0  0  0
 21 20  1  0  0  0  0
 21 24  1  0  0  0  0
 22 21  2  0  0  0  0
 23 18  2  0  0  0  0
 23 22  1  0  0  0  0
 24 25  1  0  0  0  0
 26 22  1  0  0  0  0
 27 26  1  0  0  0  0
M  END
>  <MODEL>
4

>  <REMARK>
 VINA RESULT:    -5.866      9.500     12.615
 INTER + INTRA:         -11.837
 INTER:                 -11.048
 INTRA:                  -0.789
 UNBOUND:                -1.342
  Name = CHEMBL4227901
  16 active torsions:
  status: ('A' for Active; 'I' for Inactive)
    1  A    between atoms: C_1  and  C_2
    2  A    between atoms: C_2  and  C_3
    3  A    between atoms: C_3  and  C_4
    4  A    between atoms: C_4  and  C_5
    5  A    between atoms: C_5  and  C_6
    6  A    between atoms: C_6  and  C_7
    7  A    between atoms: C_7  and  C_8
    8  A    between atoms: C_8  and  C_9
    9  A    between atoms: C_9  and  O_11
   10  A    between atoms: O_11  and  C_12
   11  A    between atoms: C_12  and  C_13
   12  A    between atoms: N_15  and  C_16
   13  A    between atoms: C_16  and  C_17
   14  A    between atoms: C_20  and  O_21
   15  A    between atoms: C_22  and  O_23
   16  A    between atoms: O_23  and  C_24
                            x       y       z     vdW  Elec       q    Type
                         _______ _______ _______ _____ _____    ______ ____

>  <TORSDO>
F 14

>  <SCORE>
-5.866

>  <RMSD_LB>
9.500

>  <RMSD_UB>
12.615

$$$$
CHEMBL4227901
 OpenBabel10162523583D

 27 27  0  0  0  0  0  0  0  0999 V2000
  139.0590  138.2020  154.9300 C   0  0  0  0  0  0  0  0  0  0  0  0
  139.9780  138.5060  155.6890 O   0  0  0  0  0  0  0  0  0  0  0  0
  138.0490  137.3330  155.2740 N   0  0  0  0  0  0  0  0  0  0  0  0
  137.3330  137.1500  154.6230 H   0  0  0  0  0  0  0  0  0  0  0  0
  138.9360  138.8060  153.5360 C   0  0  0  0  0  2  0  0  0  0  0  0
  139.3770  137.8320  152.5870 O   0  0  0  0  0  0  0  0  0  0  0  0
  138.6730  137.8130  151.4260 C   0  0  0  0  0  0  0  0  0  0  0  0
  139.0340  138.3360  150.3810 O   0  0  0  0  0  0  0  0  0  0  0  0
  137.4580  136.9280  151.5580 C   0  0  0  0  0  2  0  0  0  0  0  0
  136.7680  136.6120  150.2370 C   0  0  0  0  0  2  0  0  0  0  0  0
  137.0960  135.2070  149.7320 C   0  0  0  0  0  2  0  0  0  0  0  0
  135.8470  134.5210  149.1800 C   0  0  0  0  0  2  0  0  0  0  0  0
  135.1380  133.7150  150.2660 C   0  0  0  0  0  2  0  0  0  0  0  0
  133.6240  133.9050  150.1850 C   0  0  0  0  0  2  0  0  0  0  0  0
  132.6400  136.2010  150.4510 C   0  0  0  0  0  1  0  0  0  0  0  0
  133.2640  135.2150  149.4840 C   0  0  0  0  0  2  0  0  0  0  0  0
  138.0090  136.6790  156.5680 C   0  0  0  0  0  2  0  0  0  0  0  0
  136.7040  135.9610  156.7970 C   0  0  0  0  0  0  0  0  0  0  0  0
  136.3830  135.4740  158.0690 C   0  0  0  0  0  3  0  0  0  0  0  0
  135.2030  134.7580  158.2790 C   0  0  0  0  0  3  0  0  0  0  0  0
  134.3200  134.5290  157.2170 C   0  0  0  0  0  0  0  0  0  0  0  0
  134.6090  135.0190  155.9420 C   0  0  0  0  0  0  0  0  0  0  0  0
  135.7980  135.7390  155.7450 C   0  0  0  0  0  3  0  0  0  0  0  0
  133.1820  133.8150  157.4760 O   0  0  0  0  0  0  0  0  0  0  0  0
  132.5750  133.6360  156.7850 H   0  0  0  0  0  0  0  0  0  0  0  0
  133.8670  134.8850  154.7920 O   0  0  0  0  0  0  0  0  0  0  0  0
  134.5200  135.0940  153.5480 C   0  0  0  0  0  1  0  0  0  0  0  0
  1  3  1  0  0  0  0
  1  2  2  0  0  0  0
  3 17  1  0  0  0  0
  4  3  1  0  0  0  0
  5  1  1  0  0  0  0
  6  5  1  0  0  0  0
  7  9  1  0  0  0  0
  7  6  1  0  0  0  0
  8  7  2  0  0  0  0
 10  9  1  0  0  0  0
 11 10  1  0  0  0  0
 12 11  1  0  0  0  0
 12 13  1  0  0  0  0
 14 13  1  0  0  0  0
 16 14  1  0  0  0  0
 16 15  1  0  0  0  0
 17 18  1  0  0  0  0
 18 19  1  0  0  0  0
 19 20  2  0  0  0  0
 21 24  1  0  0  0  0
 21 20  1  0  0  0  0
 22 21  2  0  0  0  0
 23 22  1  0  0  0  0
 23 18  2  0  0  0  0
 25 24  1  0  0  0  0
 26 22  1  0  0  0  0
 27 26  1  0  0  0  0
M  END
>  <MODEL>
5

>  <REMARK>
 VINA RESULT:    -5.861      8.240     12.052
 INTER + INTRA:         -11.828
 INTER:                 -10.416
 INTRA:                  -1.413
 UNBOUND:                -1.342
  Name = CHEMBL4227901
  16 active torsions:
  status: ('A' for Active; 'I' for Inactive)
    1  A    between atoms: C_1  and  C_2
    2  A    between atoms: C_2  and  C_3
    3  A    between atoms: C_3  and  C_4
    4  A    between atoms: C_4  and  C_5
    5  A    between atoms: C_5  and  C_6
    6  A    between atoms: C_6  and  C_7
    7  A    between atoms: C_7  and  C_8
    8  A    between atoms: C_8  and  C_9
    9  A    between atoms: C_9  and  O_11
   10  A    between atoms: O_11  and  C_12
   11  A    between atoms: C_12  and  C_13
   12  A    between atoms: N_15  and  C_16
   13  A    between atoms: C_16  and  C_17
   14  A    between atoms: C_20  and  O_21
   15  A    between atoms: C_22  and  O_23
   16  A    between atoms: O_23  and  C_24
                            x       y       z     vdW  Elec       q    Type
                         _______ _______ _______ _____ _____    ______ ____

>  <TORSDO>
F 14

>  <SCORE>
-5.861

>  <RMSD_LB>
8.240

>  <RMSD_UB>
12.052

$$$$
CHEMBL4227901
 OpenBabel10162523583D

 27 27  0  0  0  0  0  0  0  0999 V2000
  141.5000  138.7330  154.4110 C   0  0  0  0  0  0  0  0  0  0  0  0
  141.5150  139.6030  155.2790 O   0  0  0  0  0  0  0  0  0  0  0  0
  140.3600  138.3530  153.7390 N   0  0  0  0  0  0  0  0  0  0  0  0
  140.4250  137.6610  153.0410 H   0  0  0  0  0  0  0  0  0  0  0  0
  142.7720  138.0180  153.9680 C   0  0  0  0  0  2  0  0  0  0  0  0
  142.8220  138.0400  152.5400 O   0  0  0  0  0  0  0  0  0  0  0  0
  143.9620  138.5660  152.0210 C   0  0  0  0  0  0  0  0  0  0  0  0
  144.9090  137.9110  151.6070 O   0  0  0  0  0  0  0  0  0  0  0  0
  143.8410  140.0630  151.8830 C   0  0  0  0  0  2  0  0  0  0  0  0
  144.6450  140.6530  150.7310 C   0  0  0  0  0  2  0  0  0  0  0  0
  145.2630  142.0050  151.0870 C   0  0  0  0  0  2  0  0  0  0  0  0
  146.7150  142.0800  150.6150 C   0  0  0  0  0  2  0  0  0  0  0  0
  147.6680  141.5460  151.6820 C   0  0  0  0  0  2  0  0  0  0  0  0
  147.3610  142.1640  153.0450 C   0  0  0  0  0  2  0  0  0  0  0  0
  147.0710  139.8320  153.9350 C   0  0  0  0  0  1  0  0  0  0  0  0
  147.6900  141.1950  154.1810 C   0  0  0  0  0  2  0  0  0  0  0  0
  139.0680  138.9420  154.0310 C   0  0  0  0  0  2  0  0  0  0  0  0
  138.1950  138.0160  154.8380 C   0  0  0  0  0  0  0  0  0  0  0  0
  138.2870  138.0000  156.2340 C   0  0  0  0  0  3  0  0  0  0  0  0
  137.5230  137.1060  156.9870 C   0  0  0  0  0  3  0  0  0  0  0  0
  136.6470  136.2200  156.3510 C   0  0  0  0  0  0  0  0  0  0  0  0
  136.5230  136.2280  154.9600 C   0  0  0  0  0  0  0  0  0  0  0  0
  137.2950  137.1330  154.2150 C   0  0  0  0  0  3  0  0  0  0  0  0
  135.9280  135.3600  157.1350 O   0  0  0  0  0  0  0  0  0  0  0  0
  135.6780  134.5200  156.8020 H   0  0  0  0  0  0  0  0  0  0  0  0
  135.7240  135.4320  154.1740 O   0  0  0  0  0  0  0  0  0  0  0  0
  134.3540  135.7860  154.0420 C   0  0  0  0  0  1  0  0  0  0  0  0
  1  2  2  0  0  0  0
  3 17  1  0  0  0  0
  3  1  1  0  0  0  0
  4  3  1  0  0  0  0
  5  1  1  0  0  0  0
  6  5  1  0  0  0  0
  7  6  1  0  0  0  0
  8  7  2  0  0  0  0
  9  7  1  0  0  0  0
 10 11  1  0  0  0  0
 10  9  1  0  0  0  0
 12 11  1  0  0  0  0
 12 13  1  0  0  0  0
 13 14  1  0  0  0  0
 14 16  1  0  0  0  0
 15 16  1  0  0  0  0
 17 18  1  0  0  0  0
 18 19  1  0  0  0  0
 19 20  2  0  0  0  0
 21 20  1  0  0  0  0
 21 24  1  0  0  0  0
 22 21  2  0  0  0  0
 23 18  2  0  0  0  0
 23 22  1  0  0  0  0
 25 24  1  0  0  0  0
 26 22  1  0  0  0  0
 27 26  1  0  0  0  0
M  END
>  <MODEL>
6

>  <REMARK>
 VINA RESULT:    -5.667      5.197      8.756
 INTER + INTRA:         -11.482
 INTER:                 -10.232
 INTRA:                  -1.250
 UNBOUND:                -1.342
  Name = CHEMBL4227901
  16 active torsions:
  status: ('A' for Active; 'I' for Inactive)
    1  A    between atoms: C_1  and  C_2
    2  A    between atoms: C_2  and  C_3
    3  A    between atoms: C_3  and  C_4
    4  A    between atoms: C_4  and  C_5
    5  A    between atoms: C_5  and  C_6
    6  A    between atoms: C_6  and  C_7
    7  A    between atoms: C_7  and  C_8
    8  A    between atoms: C_8  and  C_9
    9  A    between atoms: C_9  and  O_11
   10  A    between atoms: O_11  and  C_12
   11  A    between atoms: C_12  and  C_13
   12  A    between atoms: N_15  and  C_16
   13  A    between atoms: C_16  and  C_17
   14  A    between atoms: C_20  and  O_21
   15  A    between atoms: C_22  and  O_23
   16  A    between atoms: O_23  and  C_24
                            x       y       z     vdW  Elec       q    Type
                         _______ _______ _______ _____ _____    ______ ____

>  <TORSDO>
F 14

>  <SCORE>
-5.667

>  <RMSD_LB>
5.197

>  <RMSD_UB>
8.756

$$$$
CHEMBL4227901
 OpenBabel10162523583D

 27 27  0  0  0  0  0  0  0  0999 V2000
  134.3510  134.4410  152.1920 C   0  0  0  0  0  0  0  0  0  0  0  0
  133.2310  134.8280  152.5210 O   0  0  0  0  0  0  0  0  0  0  0  0
  135.4570  134.5470  153.0060 N   0  0  0  0  0  0  0  0  0  0  0  0
  136.3200  134.1990  152.6850 H   0  0  0  0  0  0  0  0  0  0  0  0
  134.6060  133.7640  150.8510 C   0  0  0  0  0  2  0  0  0  0  0  0
  133.3480  133.5840  150.1960 O   0  0  0  0  0  0  0  0  0  0  0  0
  133.2390  134.2130  148.9960 C   0  0  0  0  0  0  0  0  0  0  0  0
  133.2450  135.4260  148.8400 O   0  0  0  0  0  0  0  0  0  0  0  0
  133.2660  133.2120  147.8690 C   0  0  0  0  0  2  0  0  0  0  0  0
  134.6400  132.6150  147.5930 C   0  0  0  0  0  2  0  0  0  0  0  0
  135.5730  133.6040  146.8940 C   0  0  0  0  0  2  0  0  0  0  0  0
  137.0170  133.1040  146.9220 C   0  0  0  0  0  2  0  0  0  0  0  0
  138.0010  134.2690  146.9850 C   0  0  0  0  0  2  0  0  0  0  0  0
  138.7780  134.2550  148.3000 C   0  0  0  0  0  2  0  0  0  0  0  0
  137.4420  135.8440  149.7150 C   0  0  0  0  0  1  0  0  0  0  0  0
  138.7500  135.6250  148.9790 C   0  0  0  0  0  2  0  0  0  0  0  0
  135.3850  135.1560  154.3190 C   0  0  0  0  0  2  0  0  0  0  0  0
  136.3850  136.2730  154.4780 C   0  0  0  0  0  0  0  0  0  0  0  0
  137.1360  136.7070  153.3800 C   0  0  0  0  0  3  0  0  0  0  0  0
  138.1040  137.7020  153.5310 C   0  0  0  0  0  3  0  0  0  0  0  0
  138.3260  138.2850  154.7830 C   0  0  0  0  0  0  0  0  0  0  0  0
  137.5770  137.8820  155.8910 C   0  0  0  0  0  0  0  0  0  0  0  0
  136.6060  136.8820  155.7260 C   0  0  0  0  0  3  0  0  0  0  0  0
  139.2910  139.2500  154.8760 O   0  0  0  0  0  0  0  0  0  0  0  0
  139.0470  140.1520  154.9510 H   0  0  0  0  0  0  0  0  0  0  0  0
  137.6640  138.3370  157.1850 O   0  0  0  0  0  0  0  0  0  0  0  0
  137.2770  137.4550  158.2310 C   0  0  0  0  0  1  0  0  0  0  0  0
  1  2  2  0  0  0  0
  1  3  1  0  0  0  0
  3 17  1  0  0  0  0
  4  3  1  0  0  0  0
  5  1  1  0  0  0  0
  6  5  1  0  0  0  0
  7  6  1  0  0  0  0
  8  7  2  0  0  0  0
  9  7  1  0  0  0  0
 10  9  1  0  0  0  0
 11 12  1  0  0  0  0
 11 10  1  0  0  0  0
 12 13  1  0  0  0  0
 13 14  1  0  0  0  0
 14 16  1  0  0  0  0
 16 15  1  0  0  0  0
 17 18  1  0  0  0  0
 18 23  1  0  0  0  0
 19 20  1  0  0  0  0
 19 18  2  0  0  0  0
 20 21  2  0  0  0  0
 21 24  1  0  0  0  0
 21 22  1  0  0  0  0
 22 26  1  0  0  0  0
 23 22  2  0  0  0  0
 24 25  1  0  0  0  0
 26 27  1  0  0  0  0
M  END
>  <MODEL>
7

>  <REMARK>
 VINA RESULT:    -5.667      8.844     11.567
 INTER + INTRA:         -11.482
 INTER:                 -10.286
 INTRA:                  -1.196
 UNBOUND:                -1.342
  Name = CHEMBL4227901
  16 active torsions:
  status: ('A' for Active; 'I' for Inactive)
    1  A    between atoms: C_1  and  C_2
    2  A    between atoms: C_2  and  C_3
    3  A    between atoms: C_3  and  C_4
    4  A    between atoms: C_4  and  C_5
    5  A    between atoms: C_5  and  C_6
    6  A    between atoms: C_6  and  C_7
    7  A    between atoms: C_7  and  C_8
    8  A    between atoms: C_8  and  C_9
    9  A    between atoms: C_9  and  O_11
   10  A    between atoms: O_11  and  C_12
   11  A    between atoms: C_12  and  C_13
   12  A    between atoms: N_15  and  C_16
   13  A    between atoms: C_16  and  C_17
   14  A    between atoms: C_20  and  O_21
   15  A    between atoms: C_22  and  O_23
   16  A    between atoms: O_23  and  C_24
                            x       y       z     vdW  Elec       q    Type
                         _______ _______ _______ _____ _____    ______ ____

>  <TORSDO>
F 14

>  <SCORE>
-5.667

>  <RMSD_LB>
8.844

>  <RMSD_UB>
11.567

$$$$
CHEMBL4227901
 OpenBabel10162523583D

 27 27  0  0  0  0  0  0  0  0999 V2000
  139.2590  137.5430  148.8160 C   0  0  0  0  0  0  0  0  0  0  0  0
  140.0610  137.2690  147.9250 O   0  0  0  0  0  0  0  0  0  0  0  0
  139.6010  137.6130  150.1480 N   0  0  0  0  0  0  0  0  0  0  0  0
  138.9110  137.8570  150.8070 H   0  0  0  0  0  0  0  0  0  0  0  0
  137.8020  137.8750  148.5120 C   0  0  0  0  0  2  0  0  0  0  0  0
  137.0660  136.6510  148.4640 O   0  0  0  0  0  0  0  0  0  0  0  0
  136.1060  136.5300  149.4170 C   0  0  0  0  0  0  0  0  0  0  0  0
  134.9100  136.7010  149.2300 O   0  0  0  0  0  0  0  0  0  0  0  0
  136.6980  136.0050  150.7020 C   0  0  0  0  0  2  0  0  0  0  0  0
  135.7870  136.1480  151.9150 C   0  0  0  0  0  2  0  0  0  0  0  0
  135.7990  134.9020  152.8000 C   0  0  0  0  0  2  0  0  0  0  0  0
  134.3830  134.3640  153.0020 C   0  0  0  0  0  2  0  0  0  0  0  0
  133.5720  134.4550  151.7120 C   0  0  0  0  0  2  0  0  0  0  0  0
  133.7430  133.1920  150.8700 C   0  0  0  0  0  2  0  0  0  0  0  0
  134.1300  132.4670  148.4950 C   0  0  0  0  0  1  0  0  0  0  0  0
  133.4170  133.4540  149.4000 C   0  0  0  0  0  2  0  0  0  0  0  0
  140.9490  137.3370  150.6070 C   0  0  0  0  0  2  0  0  0  0  0  0
  141.1580  137.7730  152.0350 C   0  0  0  0  0  0  0  0  0  0  0  0
  142.3840  137.5400  152.6680 C   0  0  0  0  0  3  0  0  0  0  0  0
  142.5690  137.8880  154.0080 C   0  0  0  0  0  3  0  0  0  0  0  0
  141.5300  138.4860  154.7300 C   0  0  0  0  0  0  0  0  0  0  0  0
  140.3030  138.7440  154.1160 C   0  0  0  0  0  0  0  0  0  0  0  0
  140.1310  138.3910  152.7680 C   0  0  0  0  0  3  0  0  0  0  0  0
  141.7620  138.8000  156.0410 O   0  0  0  0  0  0  0  0  0  0  0  0
  142.2970  139.5380  156.2590 H   0  0  0  0  0  0  0  0  0  0  0  0
  139.1800  139.3140  154.6680 O   0  0  0  0  0  0  0  0  0  0  0  0
  138.0590  138.4760  154.9150 C   0  0  0  0  0  1  0  0  0  0  0  0
  1  3  1  0  0  0  0
  2  1  2  0  0  0  0
  3 17  1  0  0  0  0
  3  4  1  0  0  0  0
  5  1  1  0  0  0  0
  6  5  1  0  0  0  0
  6  7  1  0  0  0  0
  7  9  1  0  0  0  0
  8  7  2  0  0  0  0
  9 10  1  0  0  0  0
 10 11  1  0  0  0  0
 11 12  1  0  0  0  0
 13 12  1  0  0  0  0
 14 13  1  0  0  0  0
 15 16  1  0  0  0  0
 16 14  1  0  0  0  0
 17 18  1  0  0  0  0
 18 19  2  0  0  0  0
 18 23  1  0  0  0  0
 19 20  1  0  0  0  0
 20 21  2  0  0  0  0
 21 24  1  0  0  0  0
 22 26  1  0  0  0  0
 22 21  1  0  0  0  0
 23 22  2  0  0  0  0
 24 25  1  0  0  0  0
 26 27  1  0  0  0  0
M  END
>  <MODEL>
8

>  <REMARK>
 VINA RESULT:    -5.662      6.463      9.128
 INTER + INTRA:         -11.472
 INTER:                 -10.316
 INTRA:                  -1.156
 UNBOUND:                -1.342
  Name = CHEMBL4227901
  16 active torsions:
  status: ('A' for Active; 'I' for Inactive)
    1  A    between atoms: C_1  and  C_2
    2  A    between atoms: C_2  and  C_3
    3  A    between atoms: C_3  and  C_4
    4  A    between atoms: C_4  and  C_5
    5  A    between atoms: C_5  and  C_6
    6  A    between atoms: C_6  and  C_7
    7  A    between atoms: C_7  and  C_8
    8  A    between atoms: C_8  and  C_9
    9  A    between atoms: C_9  and  O_11
   10  A    between atoms: O_11  and  C_12
   11  A    between atoms: C_12  and  C_13
   12  A    between atoms: N_15  and  C_16
   13  A    between atoms: C_16  and  C_17
   14  A    between atoms: C_20  and  O_21
   15  A    between atoms: C_22  and  O_23
   16  A    between atoms: O_23  and  C_24
                            x       y       z     vdW  Elec       q    Type
                         _______ _______ _______ _____ _____    ______ ____

>  <TORSDO>
F 14

>  <SCORE>
-5.662

>  <RMSD_LB>
6.463

>  <RMSD_UB>
9.128

$$$$
CHEMBL4227901
 OpenBabel10162523583D

 27 27  0  0  0  0  0  0  0  0999 V2000
  143.4180  139.1900  150.6900 C   0  0  0  0  0  0  0  0  0  0  0  0
  143.6320  137.9830  150.7950 O   0  0  0  0  0  0  0  0  0  0  0  0
  143.6670  140.0930  151.6990 N   0  0  0  0  0  0  0  0  0  0  0  0
  143.4900  141.0480  151.5390 H   0  0  0  0  0  0  0  0  0  0  0  0
  142.8890  139.8030  149.3980 C   0  0  0  0  0  2  0  0  0  0  0  0
  141.6010  140.3620  149.6640 O   0  0  0  0  0  0  0  0  0  0  0  0
  140.5690  139.4860  149.5490 C   0  0  0  0  0  0  0  0  0  0  0  0
  140.3500  138.7890  148.5680 O   0  0  0  0  0  0  0  0  0  0  0  0
  139.8190  139.3760  150.8530 C   0  0  0  0  0  2  0  0  0  0  0  0
  139.7570  137.9640  151.4230 C   0  0  0  0  0  2  0  0  0  0  0  0
  140.6310  137.8000  152.6660 C   0  0  0  0  0  2  0  0  0  0  0  0
  140.2190  138.7900  153.7560 C   0  0  0  0  0  2  0  0  0  0  0  0
  139.6260  138.0630  154.9600 C   0  0  0  0  0  2  0  0  0  0  0  0
  138.1060  138.2200  154.9980 C   0  0  0  0  0  2  0  0  0  0  0  0
  137.1800  135.9580  155.5780 C   0  0  0  0  0  1  0  0  0  0  0  0
  137.4050  136.9690  154.4700 C   0  0  0  0  0  2  0  0  0  0  0  0
  144.1830  139.6770  152.9880 C   0  0  0  0  0  2  0  0  0  0  0  0
  145.6060  140.1260  153.1990 C   0  0  0  0  0  0  0  0  0  0  0  0
  145.9850  141.4360  152.8810 C   0  0  0  0  0  3  0  0  0  0  0  0
  147.3130  141.8440  153.0190 C   0  0  0  0  0  3  0  0  0  0  0  0
  148.2800  140.9490  153.4880 C   0  0  0  0  0  0  0  0  0  0  0  0
  147.9250  139.6410  153.8280 C   0  0  0  0  0  0  0  0  0  0  0  0
  146.5860  139.2440  153.6860 C   0  0  0  0  0  3  0  0  0  0  0  0
  149.5680  141.3980  153.5970 O   0  0  0  0  0  0  0  0  0  0  0  0
  149.8300  142.1810  153.1540 H   0  0  0  0  0  0  0  0  0  0  0  0
  148.7370  138.6350  154.2950 O   0  0  0  0  0  0  0  0  0  0  0  0
  149.2960  137.7350  153.3480 C   0  0  0  0  0  1  0  0  0  0  0  0
  1  2  2  0  0  0  0
  1  3  1  0  0  0  0
  3 17  1  0  0  0  0
  4  3  1  0  0  0  0
  5  6  1  0  0  0  0
  5  1  1  0  0  0  0
  7  6  1  0  0  0  0
  7  9  1  0  0  0  0
  8  7  2  0  0  0  0
  9 10  1  0  0  0  0
 10 11  1  0  0  0  0
 11 12  1  0  0  0  0
 12 13  1  0  0  0  0
 13 14  1  0  0  0  0
 16 14  1  0  0  0  0
 16 15  1  0  0  0  0
 17 18  1  0  0  0  0
 18 23  1  0  0  0  0
 19 20  1  0  0  0  0
 19 18  2  0  0  0  0
 20 21  2  0  0  0  0
 21 24  1  0  0  0  0
 21 22  1  0  0  0  0
 22 26  1  0  0  0  0
 23 22  2  0  0  0  0
 25 24  1  0  0  0  0
 27 26  1  0  0  0  0
M  END
>  <MODEL>
9

>  <REMARK>
 VINA RESULT:    -5.547      3.055      4.893
 INTER + INTRA:         -11.267
 INTER:                  -9.925
 INTRA:                  -1.342
 UNBOUND:                -1.342
  Name = CHEMBL4227901
  16 active torsions:
  status: ('A' for Active; 'I' for Inactive)
    1  A    between atoms: C_1  and  C_2
    2  A    between atoms: C_2  and  C_3
    3  A    between atoms: C_3  and  C_4
    4  A    between atoms: C_4  and  C_5
    5  A    between atoms: C_5  and  C_6
    6  A    between atoms: C_6  and  C_7
    7  A    between atoms: C_7  and  C_8
    8  A    between atoms: C_8  and  C_9
    9  A    between atoms: C_9  and  O_11
   10  A    between atoms: O_11  and  C_12
   11  A    between atoms: C_12  and  C_13
   12  A    between atoms: N_15  and  C_16
   13  A    between atoms: C_16  and  C_17
   14  A    between atoms: C_20  and  O_21
   15  A    between atoms: C_22  and  O_23
   16  A    between atoms: O_23  and  C_24
                            x       y       z     vdW  Elec       q    Type
                         _______ _______ _______ _____ _____    ______ ____

>  <TORSDO>
F 14

>  <SCORE>
-5.547

>  <RMSD_LB>
3.055

>  <RMSD_UB>
4.893

$$$$
