CHEMBL5429923
 OpenBabel10172500303D

 29 31  0  0  0  0  0  0  0  0999 V2000
  138.4800  137.7620  154.5800 N   0  0  0  0  0  0  0  0  0  0  0  0
  139.4340  138.6630  154.1700 C   0  0  0  0  0  0  0  0  0  0  0  0
  140.1610  139.2680  154.9530 O   0  0  0  0  0  0  0  0  0  0  0  0
  137.9170  137.3180  153.9050 H   0  0  0  0  0  0  0  0  0  0  0  0
  138.2830  137.4500  155.9780 C   0  0  0  0  0  2  0  0  0  0  0  0
  135.1040  135.4190  155.3610 C   0  0  0  0  0  0  0  0  0  0  0  0
  136.2200  136.2400  155.1560 C   0  0  0  0  0  3  0  0  0  0  0  0
  137.1080  136.5320  156.2090 C   0  0  0  0  0  0  0  0  0  0  0  0
  136.8800  135.9650  157.4700 C   0  0  0  0  0  3  0  0  0  0  0  0
  135.7720  135.1450  157.6850 C   0  0  0  0  0  3  0  0  0  0  0  0
  134.8920  134.8790  156.6350 C   0  0  0  0  0  0  0  0  0  0  0  0
  134.1330  135.9040  153.2370 C   0  0  0  0  0  1  0  0  0  0  0  0
  134.1790  135.0930  154.4030 O   0  0  0  0  0  0  0  0  0  0  0  0
  133.7990  134.0810  156.8520 O   0  0  0  0  0  0  0  0  0  0  0  0
  133.0090  134.2260  156.3700 H   0  0  0  0  0  0  0  0  0  0  0  0
  139.5230  138.8180  152.6610 C   0  0  0  0  0  2  0  0  0  0  0  0
  140.0350  137.5390  151.9960 C   0  0  0  0  0  2  0  0  0  0  0  0
  139.8770  137.5750  150.4750 C   0  0  0  0  0  2  0  0  0  0  0  0
  138.7780  136.6620  150.0070 C   0  0  0  0  0  0  0  0  0  0  0  0
  138.8040  135.7700  148.9560 C   0  0  0  0  0  3  0  0  0  0  0  0
  137.5640  135.0840  148.7970 C   0  0  0  0  0  3  0  0  0  0  0  0
  136.6110  135.4670  149.7270 C   0  0  0  0  0  0  0  0  0  0  0  0
  137.2610  136.6460  150.7970 S   0  0  0  0  0  0  0  0  0  0  0  0
  135.2290  134.9820  149.8720 C   0  0  0  0  0  0  0  0  0  0  0  0
  134.9630  133.7250  150.4310 C   0  0  0  0  0  3  0  0  0  0  0  0
  133.6520  133.2610  150.5340 C   0  0  0  0  0  3  0  0  0  0  0  0
  132.6290  134.0710  150.0730 C   0  0  0  0  0  3  0  0  0  0  0  0
  132.8300  135.2870  149.5290 N   0  0  0  0  0  0  0  0  0  0  0  0
  134.1190  135.7100  149.4420 C   0  0  0  0  0  3  0  0  0  0  0  0
  1  5  1  0  0  0  0
  2  1  1  0  0  0  0
  2  3  2  0  0  0  0
  4  1  1  0  0  0  0
  5  8  1  0  0  0  0
  6 11  1  0  0  0  0
  7  6  2  0  0  0  0
  7  8  1  0  0  0  0
  8  9  2  0  0  0  0
  9 10  1  0  0  0  0
 11 14  1  0  0  0  0
 11 10  2  0  0  0  0
 12 13  1  0  0  0  0
 13  6  1  0  0  0  0
 15 14  1  0  0  0  0
 16  2  1  0  0  0  0
 17 16  1  0  0  0  0
 18 17  1  0  0  0  0
 19 18  1  0  0  0  0
 19 23  1  0  0  0  0
 20 19  2  0  0  0  0
 21 20  1  0  0  0  0
 21 22  2  0  0  0  0
 22 24  1  0  0  0  0
 22 23  1  0  0  0  0
 24 25  1  0  0  0  0
 25 26  2  0  0  0  0
 27 26  1  0  0  0  0
 28 27  2  0  0  0  0
 29 28  1  0  0  0  0
 29 24  2  0  0  0  0
M  END
>  <MODEL>
1

>  <REMARK>
 VINA RESULT:    -7.217      0.000      0.000
 INTER + INTRA:         -12.110
 INTER:                 -10.916
 INTRA:                  -1.194
 UNBOUND:                -1.306
  Name = CHEMBL5429923
  10 active torsions:
  status: ('A' for Active; 'I' for Inactive)
    1  A    between atoms: C_1  and  O_2
    2  A    between atoms: O_2  and  C_3
    3  A    between atoms: C_5  and  C_6
    4  A    between atoms: C_6  and  N_7
    5  A    between atoms: C_8  and  C_10
    6  A    between atoms: C_10  and  C_11
    7  A    between atoms: C_11  and  C_12
    8  A    between atoms: C_12  and  C_13
    9  A    between atoms: C_16  and  C_17
   10  A    between atoms: C_26  and  O_27
                            x       y       z     vdW  Elec       q    Type
                         _______ _______ _______ _____ _____    ______ ____

>  <TORSDO>
F 9

>  <SCORE>
-7.217

>  <RMSD_LB>
0.000

>  <RMSD_UB>
0.000

$$$$
CHEMBL5429923
 OpenBabel10172500303D

 29 31  0  0  0  0  0  0  0  0999 V2000
  138.2760  137.5700  154.4370 N   0  0  0  0  0  0  0  0  0  0  0  0
  137.3410  137.8310  155.4110 C   0  0  0  0  0  0  0  0  0  0  0  0
  137.0090  138.9690  155.7300 O   0  0  0  0  0  0  0  0  0  0  0  0
  138.5110  136.6350  154.2360 H   0  0  0  0  0  0  0  0  0  0  0  0
  138.9220  138.6340  153.7030 C   0  0  0  0  0  2  0  0  0  0  0  0
  140.6360  137.3210  150.5480 C   0  0  0  0  0  0  0  0  0  0  0  0
  139.6680  137.8260  151.4260 C   0  0  0  0  0  3  0  0  0  0  0  0
  139.9880  138.1280  152.7630 C   0  0  0  0  0  0  0  0  0  0  0  0
  141.3040  137.9440  153.2060 C   0  0  0  0  0  3  0  0  0  0  0  0
  142.2770  137.4420  152.3410 C   0  0  0  0  0  3  0  0  0  0  0  0
  141.9390  137.1320  151.0230 C   0  0  0  0  0  0  0  0  0  0  0  0
  139.0840  137.1020  148.7510 C   0  0  0  0  0  1  0  0  0  0  0  0
  140.4130  136.9850  149.2380 O   0  0  0  0  0  0  0  0  0  0  0  0
  142.8950  136.6310  150.1780 O   0  0  0  0  0  0  0  0  0  0  0  0
  143.6250  136.1570  150.5250 H   0  0  0  0  0  0  0  0  0  0  0  0
  136.7380  136.5820  156.0330 C   0  0  0  0  0  2  0  0  0  0  0  0
  136.2350  135.6100  154.9640 C   0  0  0  0  0  2  0  0  0  0  0  0
  134.8210  135.9530  154.4910 C   0  0  0  0  0  2  0  0  0  0  0  0
  134.5280  135.3650  153.1380 C   0  0  0  0  0  0  0  0  0  0  0  0
  133.3360  134.8530  152.6730 C   0  0  0  0  0  3  0  0  0  0  0  0
  133.4400  134.3630  151.3390 C   0  0  0  0  0  3  0  0  0  0  0  0
  134.7120  134.5050  150.8080 C   0  0  0  0  0  0  0  0  0  0  0  0
  135.7540  135.2610  151.9480 S   0  0  0  0  0  0  0  0  0  0  0  0
  135.1940  134.1190  149.4720 C   0  0  0  0  0  0  0  0  0  0  0  0
  134.4800  133.2040  148.6870 C   0  0  0  0  0  3  0  0  0  0  0  0
  134.9630  132.8190  147.4350 C   0  0  0  0  0  3  0  0  0  0  0  0
  136.1580  133.3610  146.9960 C   0  0  0  0  0  3  0  0  0  0  0  0
  136.8820  134.2440  147.7110 N   0  0  0  0  0  0  0  0  0  0  0  0
  136.3840  134.5990  148.9250 C   0  0  0  0  0  3  0  0  0  0  0  0
  1  2  1  0  0  0  0
  2  3  2  0  0  0  0
  2 16  1  0  0  0  0
  4  1  1  0  0  0  0
  5  1  1  0  0  0  0
  6 11  2  0  0  0  0
  6  7  1  0  0  0  0
  7  8  2  0  0  0  0
  8  9  1  0  0  0  0
  8  5  1  0  0  0  0
 10  9  2  0  0  0  0
 11 10  1  0  0  0  0
 12 13  1  0  0  0  0
 13  6  1  0  0  0  0
 14 15  1  0  0  0  0
 14 11  1  0  0  0  0
 17 16  1  0  0  0  0
 18 17  1  0  0  0  0
 19 18  1  0  0  0  0
 20 19  2  0  0  0  0
 21 20  1  0  0  0  0
 22 21  2  0  0  0  0
 22 23  1  0  0  0  0
 23 19  1  0  0  0  0
 24 22  1  0  0  0  0
 25 24  2  0  0  0  0
 26 25  1  0  0  0  0
 27 26  2  0  0  0  0
 27 28  1  0  0  0  0
 28 29  2  0  0  0  0
 29 24  1  0  0  0  0
M  END
>  <MODEL>
2

>  <REMARK>
 VINA RESULT:    -6.930      2.448      5.632
 INTER + INTRA:         -11.680
 INTER:                 -10.617
 INTRA:                  -1.063
 UNBOUND:                -1.306
  Name = CHEMBL5429923
  10 active torsions:
  status: ('A' for Active; 'I' for Inactive)
    1  A    between atoms: C_1  and  O_2
    2  A    between atoms: O_2  and  C_3
    3  A    between atoms: C_5  and  C_6
    4  A    between atoms: C_6  and  N_7
    5  A    between atoms: C_8  and  C_10
    6  A    between atoms: C_10  and  C_11
    7  A    between atoms: C_11  and  C_12
    8  A    between atoms: C_12  and  C_13
    9  A    between atoms: C_16  and  C_17
   10  A    between atoms: C_26  and  O_27
                            x       y       z     vdW  Elec       q    Type
                         _______ _______ _______ _____ _____    ______ ____

>  <TORSDO>
F 9

>  <SCORE>
-6.930

>  <RMSD_LB>
2.448

>  <RMSD_UB>
5.632

$$$$
CHEMBL5429923
 OpenBabel10172500303D

 29 31  0  0  0  0  0  0  0  0999 V2000
  144.3300  137.1780  151.8210 N   0  0  0  0  0  0  0  0  0  0  0  0
  143.1980  137.8190  151.3770 C   0  0  0  0  0  0  0  0  0  0  0  0
  143.1770  138.5110  150.3620 O   0  0  0  0  0  0  0  0  0  0  0  0
  144.2880  136.6490  152.6510 H   0  0  0  0  0  0  0  0  0  0  0  0
  145.5810  137.2620  151.1010 C   0  0  0  0  0  2  0  0  0  0  0  0
  147.4430  140.3140  152.4530 C   0  0  0  0  0  0  0  0  0  0  0  0
  146.4820  139.5100  151.8270 C   0  0  0  0  0  3  0  0  0  0  0  0
  146.6070  138.1080  151.8130 C   0  0  0  0  0  0  0  0  0  0  0  0
  147.6970  137.5150  152.4620 C   0  0  0  0  0  3  0  0  0  0  0  0
  148.6600  138.3060  153.0900 C   0  0  0  0  0  3  0  0  0  0  0  0
  148.5310  139.6950  153.0790 C   0  0  0  0  0  0  0  0  0  0  0  0
  146.2690  142.2910  153.0880 C   0  0  0  0  0  1  0  0  0  0  0  0
  147.4130  141.6840  152.5040 O   0  0  0  0  0  0  0  0  0  0  0  0
  149.4840  140.4690  153.6890 O   0  0  0  0  0  0  0  0  0  0  0  0
  149.4430  141.4020  153.6200 H   0  0  0  0  0  0  0  0  0  0  0  0
  141.9720  137.5700  152.2410 C   0  0  0  0  0  2  0  0  0  0  0  0
  142.3060  137.6800  153.7300 C   0  0  0  0  0  2  0  0  0  0  0  0
  141.6240  138.8830  154.3870 C   0  0  0  0  0  2  0  0  0  0  0  0
  140.2670  138.5270  154.9280 C   0  0  0  0  0  0  0  0  0  0  0  0
  139.0330  138.8340  154.3970 C   0  0  0  0  0  3  0  0  0  0  0  0
  137.9610  138.3450  155.2000 C   0  0  0  0  0  3  0  0  0  0  0  0
  138.3950  137.6760  156.3320 C   0  0  0  0  0  0  0  0  0  0  0  0
  140.1140  137.6370  156.3820 S   0  0  0  0  0  0  0  0  0  0  0  0
  137.5860  137.0410  157.3860 C   0  0  0  0  0  0  0  0  0  0  0  0
  136.9950  135.7870  157.1800 C   0  0  0  0  0  3  0  0  0  0  0  0
  136.2030  135.2090  158.1730 C   0  0  0  0  0  3  0  0  0  0  0  0
  136.0190  135.9030  159.3560 C   0  0  0  0  0  3  0  0  0  0  0  0
  136.5660  137.1090  159.6030 N   0  0  0  0  0  0  0  0  0  0  0  0
  137.3320  137.6450  158.6170 C   0  0  0  0  0  3  0  0  0  0  0  0
  1  4  1  0  0  0  0
  2  1  1  0  0  0  0
  2 16  1  0  0  0  0
  3  2  2  0  0  0  0
  5  8  1  0  0  0  0
  5  1  1  0  0  0  0
  6 13  1  0  0  0  0
  6 11  1  0  0  0  0
  7  6  2  0  0  0  0
  8  7  1  0  0  0  0
  8  9  2  0  0  0  0
  9 10  1  0  0  0  0
 11 10  2  0  0  0  0
 11 14  1  0  0  0  0
 13 12  1  0  0  0  0
 15 14  1  0  0  0  0
 16 17  1  0  0  0  0
 17 18  1  0  0  0  0
 18 19  1  0  0  0  0
 19 23  1  0  0  0  0
 20 19  2  0  0  0  0
 20 21  1  0  0  0  0
 21 22  2  0  0  0  0
 22 23  1  0  0  0  0
 22 24  1  0  0  0  0
 24 29  1  0  0  0  0
 25 24  2  0  0  0  0
 25 26  1  0  0  0  0
 26 27  2  0  0  0  0
 27 28  1  0  0  0  0
 29 28  2  0  0  0  0
M  END
>  <MODEL>
3

>  <REMARK>
 VINA RESULT:    -6.796      5.902      9.856
 INTER + INTRA:         -11.480
 INTER:                 -10.643
 INTRA:                  -0.837
 UNBOUND:                -1.306
  Name = CHEMBL5429923
  10 active torsions:
  status: ('A' for Active; 'I' for Inactive)
    1  A    between atoms: C_1  and  O_2
    2  A    between atoms: O_2  and  C_3
    3  A    between atoms: C_5  and  C_6
    4  A    between atoms: C_6  and  N_7
    5  A    between atoms: C_8  and  C_10
    6  A    between atoms: C_10  and  C_11
    7  A    between atoms: C_11  and  C_12
    8  A    between atoms: C_12  and  C_13
    9  A    between atoms: C_16  and  C_17
   10  A    between atoms: C_26  and  O_27
                            x       y       z     vdW  Elec       q    Type
                         _______ _______ _______ _____ _____    ______ ____

>  <TORSDO>
F 9

>  <SCORE>
-6.796

>  <RMSD_LB>
5.902

>  <RMSD_UB>
9.856

$$$$
CHEMBL5429923
 OpenBabel10172500303D

 29 31  0  0  0  0  0  0  0  0999 V2000
  134.7680  136.2840  147.4960 N   0  0  0  0  0  0  0  0  0  0  0  0
  133.4590  136.2700  147.9160 C   0  0  0  0  0  0  0  0  0  0  0  0
  132.8880  137.2650  148.3540 O   0  0  0  0  0  0  0  0  0  0  0  0
  135.1750  135.4500  147.1680 H   0  0  0  0  0  0  0  0  0  0  0  0
  135.5610  137.4920  147.5260 C   0  0  0  0  0  2  0  0  0  0  0  0
  138.5500  138.4340  149.7160 C   0  0  0  0  0  0  0  0  0  0  0  0
  137.4030  138.5260  148.9160 C   0  0  0  0  0  3  0  0  0  0  0  0
  136.7730  137.3700  148.4170 C   0  0  0  0  0  0  0  0  0  0  0  0
  137.2900  136.1130  148.7540 C   0  0  0  0  0  3  0  0  0  0  0  0
  138.4310  136.0090  149.5500 C   0  0  0  0  0  3  0  0  0  0  0  0
  139.0540  137.1640  150.0220 C   0  0  0  0  0  0  0  0  0  0  0  0
  138.9190  140.7900  149.7280 C   0  0  0  0  0  1  0  0  0  0  0  0
  139.2380  139.5010  150.2320 O   0  0  0  0  0  0  0  0  0  0  0  0
  140.1800  137.0590  150.7970 O   0  0  0  0  0  0  0  0  0  0  0  0
  140.3800  137.7240  151.4250 H   0  0  0  0  0  0  0  0  0  0  0  0
  132.7780  134.9200  147.7600 C   0  0  0  0  0  2  0  0  0  0  0  0
  133.4550  133.8500  148.6180 C   0  0  0  0  0  2  0  0  0  0  0  0
  132.8890  133.8040  150.0390 C   0  0  0  0  0  2  0  0  0  0  0  0
  133.9430  134.1070  151.0680 C   0  0  0  0  0  0  0  0  0  0  0  0
  135.3120  134.0270  150.9320 C   0  0  0  0  0  3  0  0  0  0  0  0
  135.9970  134.3740  152.1330 C   0  0  0  0  0  3  0  0  0  0  0  0
  135.1390  134.7090  153.1680 C   0  0  0  0  0  0  0  0  0  0  0  0
  133.5040  134.6160  152.6420 S   0  0  0  0  0  0  0  0  0  0  0  0
  135.4770  135.1170  154.5410 C   0  0  0  0  0  0  0  0  0  0  0  0
  134.7400  134.6430  155.6340 C   0  0  0  0  0  3  0  0  0  0  0  0
  135.0480  135.0620  156.9290 C   0  0  0  0  0  3  0  0  0  0  0  0
  136.0940  135.9510  157.1020 C   0  0  0  0  0  3  0  0  0  0  0  0
  136.8350  136.4350  156.0850 N   0  0  0  0  0  0  0  0  0  0  0  0
  136.5090  136.0080  154.8370 C   0  0  0  0  0  3  0  0  0  0  0  0
  1  5  1  0  0  0  0
  1  2  1  0  0  0  0
  2  3  2  0  0  0  0
  4  1  1  0  0  0  0
  5  8  1  0  0  0  0
  6 11  1  0  0  0  0
  6 13  1  0  0  0  0
  7  6  2  0  0  0  0
  8  9  2  0  0  0  0
  8  7  1  0  0  0  0
  9 10  1  0  0  0  0
 10 11  2  0  0  0  0
 11 14  1  0  0  0  0
 12 13  1  0  0  0  0
 14 15  1  0  0  0  0
 16  2  1  0  0  0  0
 16 17  1  0  0  0  0
 17 18  1  0  0  0  0
 18 19  1  0  0  0  0
 19 23  1  0  0  0  0
 20 19  2  0  0  0  0
 20 21  1  0  0  0  0
 21 22  2  0  0  0  0
 22 24  1  0  0  0  0
 23 22  1  0  0  0  0
 24 29  2  0  0  0  0
 24 25  1  0  0  0  0
 25 26  2  0  0  0  0
 26 27  1  0  0  0  0
 28 27  2  0  0  0  0
 29 28  1  0  0  0  0
M  END
>  <MODEL>
4

>  <REMARK>
 VINA RESULT:    -6.741      2.995      7.411
 INTER + INTRA:         -11.397
 INTER:                  -9.927
 INTRA:                  -1.471
 UNBOUND:                -1.306
  Name = CHEMBL5429923
  10 active torsions:
  status: ('A' for Active; 'I' for Inactive)
    1  A    between atoms: C_1  and  O_2
    2  A    between atoms: O_2  and  C_3
    3  A    between atoms: C_5  and  C_6
    4  A    between atoms: C_6  and  N_7
    5  A    between atoms: C_8  and  C_10
    6  A    between atoms: C_10  and  C_11
    7  A    between atoms: C_11  and  C_12
    8  A    between atoms: C_12  and  C_13
    9  A    between atoms: C_16  and  C_17
   10  A    between atoms: C_26  and  O_27
                            x       y       z     vdW  Elec       q    Type
                         _______ _______ _______ _____ _____    ______ ____

>  <TORSDO>
F 9

>  <SCORE>
-6.741

>  <RMSD_LB>
2.995

>  <RMSD_UB>
7.411

$$$$
CHEMBL5429923
 OpenBabel10172500303D

 29 31  0  0  0  0  0  0  0  0999 V2000
  136.6400  136.7000  151.2360 N   0  0  0  0  0  0  0  0  0  0  0  0
  137.6320  137.2340  152.0240 C   0  0  0  0  0  0  0  0  0  0  0  0
  137.6830  137.0660  153.2390 O   0  0  0  0  0  0  0  0  0  0  0  0
  136.6450  136.8820  150.2690 H   0  0  0  0  0  0  0  0  0  0  0  0
  135.5900  135.8770  151.7940 C   0  0  0  0  0  2  0  0  0  0  0  0
  133.1700  135.5970  148.8480 C   0  0  0  0  0  0  0  0  0  0  0  0
  134.0360  136.1250  149.8150 C   0  0  0  0  0  3  0  0  0  0  0  0
  134.6910  135.2860  150.7360 C   0  0  0  0  0  0  0  0  0  0  0  0
  134.4910  133.9010  150.6590 C   0  0  0  0  0  3  0  0  0  0  0  0
  133.6320  133.3650  149.7000 C   0  0  0  0  0  3  0  0  0  0  0  0
  132.9760  134.2110  148.8060 C   0  0  0  0  0  0  0  0  0  0  0  0
  133.2370  137.1140  147.0100 C   0  0  0  0  0  1  0  0  0  0  0  0
  132.4780  136.3340  147.9230 O   0  0  0  0  0  0  0  0  0  0  0  0
  132.1260  133.6810  147.8710 O   0  0  0  0  0  0  0  0  0  0  0  0
  132.3390  133.7330  146.9600 H   0  0  0  0  0  0  0  0  0  0  0  0
  138.6720  138.0270  151.2490 C   0  0  0  0  0  2  0  0  0  0  0  0
  140.0850  137.7540  151.7680 C   0  0  0  0  0  2  0  0  0  0  0  0
  140.9480  137.0210  150.7390 C   0  0  0  0  0  2  0  0  0  0  0  0
  142.4050  137.0540  151.1080 C   0  0  0  0  0  0  0  0  0  0  0  0
  143.4740  136.5500  150.3990 C   0  0  0  0  0  3  0  0  0  0  0  0
  144.7140  136.7500  151.0730 C   0  0  0  0  0  3  0  0  0  0  0  0
  144.5710  137.4010  152.2870 C   0  0  0  0  0  0  0  0  0  0  0  0
  142.9180  137.7780  152.5720 S   0  0  0  0  0  0  0  0  0  0  0  0
  145.6170  137.7760  153.2520 C   0  0  0  0  0  0  0  0  0  0  0  0
  146.9540  137.4110  153.0430 C   0  0  0  0  0  3  0  0  0  0  0  0
  147.9320  137.7430  153.9800 C   0  0  0  0  0  3  0  0  0  0  0  0
  147.5490  138.4380  155.1140 C   0  0  0  0  0  3  0  0  0  0  0  0
  146.2790  138.8140  155.3620 N   0  0  0  0  0  0  0  0  0  0  0  0
  145.3500  138.4760  154.4290 C   0  0  0  0  0  3  0  0  0  0  0  0
  1  5  1  0  0  0  0
  1  2  1  0  0  0  0
  2  3  2  0  0  0  0
  4  1  1  0  0  0  0
  6  7  1  0  0  0  0
  7  8  2  0  0  0  0
  8  5  1  0  0  0  0
  9  8  1  0  0  0  0
 10  9  2  0  0  0  0
 11  6  2  0  0  0  0
 11 10  1  0  0  0  0
 12 13  1  0  0  0  0
 13  6  1  0  0  0  0
 14 11  1  0  0  0  0
 15 14  1  0  0  0  0
 16 17  1  0  0  0  0
 16  2  1  0  0  0  0
 18 19  1  0  0  0  0
 18 17  1  0  0  0  0
 19 23  1  0  0  0  0
 20 21  1  0  0  0  0
 20 19  2  0  0  0  0
 21 22  2  0  0  0  0
 22 23  1  0  0  0  0
 22 24  1  0  0  0  0
 24 29  1  0  0  0  0
 25 24  2  0  0  0  0
 25 26  1  0  0  0  0
 26 27  2  0  0  0  0
 27 28  1  0  0  0  0
 29 28  2  0  0  0  0
M  END
>  <MODEL>
5

>  <REMARK>
 VINA RESULT:    -6.717      4.580      8.480
 INTER + INTRA:         -11.361
 INTER:                 -10.784
 INTRA:                  -0.576
 UNBOUND:                -1.306
  Name = CHEMBL5429923
  10 active torsions:
  status: ('A' for Active; 'I' for Inactive)
    1  A    between atoms: C_1  and  O_2
    2  A    between atoms: O_2  and  C_3
    3  A    between atoms: C_5  and  C_6
    4  A    between atoms: C_6  and  N_7
    5  A    between atoms: C_8  and  C_10
    6  A    between atoms: C_10  and  C_11
    7  A    between atoms: C_11  and  C_12
    8  A    between atoms: C_12  and  C_13
    9  A    between atoms: C_16  and  C_17
   10  A    between atoms: C_26  and  O_27
                            x       y       z     vdW  Elec       q    Type
                         _______ _______ _______ _____ _____    ______ ____

>  <TORSDO>
F 9

>  <SCORE>
-6.717

>  <RMSD_LB>
4.580

>  <RMSD_UB>
8.480

$$$$
CHEMBL5429923
 OpenBabel10172500303D

 29 31  0  0  0  0  0  0  0  0999 V2000
  134.5510  134.2850  152.5990 N   0  0  0  0  0  0  0  0  0  0  0  0
  134.3320  135.0650  151.4880 C   0  0  0  0  0  0  0  0  0  0  0  0
  133.5710  136.0290  151.4890 O   0  0  0  0  0  0  0  0  0  0  0  0
  135.1610  133.5150  152.5330 H   0  0  0  0  0  0  0  0  0  0  0  0
  133.9050  134.5660  153.8620 C   0  0  0  0  0  2  0  0  0  0  0  0
  136.9310  136.2660  155.4640 C   0  0  0  0  0  0  0  0  0  0  0  0
  136.0100  135.8080  154.5140 C   0  0  0  0  0  3  0  0  0  0  0  0
  134.8660  135.0840  154.9030 C   0  0  0  0  0  0  0  0  0  0  0  0
  134.6410  134.8480  156.2660 C   0  0  0  0  0  3  0  0  0  0  0  0
  135.5520  135.3000  157.2210 C   0  0  0  0  0  3  0  0  0  0  0  0
  136.6890  136.0010  156.8170 C   0  0  0  0  0  0  0  0  0  0  0  0
  137.9360  138.3270  154.8080 C   0  0  0  0  0  1  0  0  0  0  0  0
  138.0770  136.9620  155.1780 O   0  0  0  0  0  0  0  0  0  0  0  0
  137.5860  136.4360  157.7570 O   0  0  0  0  0  0  0  0  0  0  0  0
  137.2950  136.6390  158.6240 H   0  0  0  0  0  0  0  0  0  0  0  0
  135.1390  134.6400  150.2720 C   0  0  0  0  0  2  0  0  0  0  0  0
  134.3590  133.6550  149.4000 C   0  0  0  0  0  2  0  0  0  0  0  0
  133.1450  134.3070  148.7350 C   0  0  0  0  0  2  0  0  0  0  0  0
  133.5250  135.0330  147.4730 C   0  0  0  0  0  0  0  0  0  0  0  0
  134.3860  134.6180  146.4800 C   0  0  0  0  0  3  0  0  0  0  0  0
  134.5170  135.5830  145.4390 C   0  0  0  0  0  3  0  0  0  0  0  0
  133.7560  136.7200  145.6570 C   0  0  0  0  0  0  0  0  0  0  0  0
  132.8730  136.5760  147.1250 S   0  0  0  0  0  0  0  0  0  0  0  0
  133.6380  137.9170  144.8080 C   0  0  0  0  0  0  0  0  0  0  0  0
  133.8360  137.8400  143.4240 C   0  0  0  0  0  3  0  0  0  0  0  0
  133.7540  138.9860  142.6330 C   0  0  0  0  0  3  0  0  0  0  0  0
  133.4740  140.1930  143.2500 C   0  0  0  0  0  3  0  0  0  0  0  0
  133.2740  140.3210  144.5760 N   0  0  0  0  0  0  0  0  0  0  0  0
  133.3610  139.1860  145.3190 C   0  0  0  0  0  3  0  0  0  0  0  0
  1  5  1  0  0  0  0
  2  3  2  0  0  0  0
  2  1  1  0  0  0  0
  4  1  1  0  0  0  0
  5  8  1  0  0  0  0
  6 11  1  0  0  0  0
  7  8  1  0  0  0  0
  7  6  2  0  0  0  0
  8  9  2  0  0  0  0
  9 10  1  0  0  0  0
 11 10  2  0  0  0  0
 11 14  1  0  0  0  0
 12 13  1  0  0  0  0
 13  6  1  0  0  0  0
 14 15  1  0  0  0  0
 16  2  1  0  0  0  0
 17 16  1  0  0  0  0
 18 17  1  0  0  0  0
 19 18  1  0  0  0  0
 20 19  2  0  0  0  0
 21 22  2  0  0  0  0
 21 20  1  0  0  0  0
 22 23  1  0  0  0  0
 23 19  1  0  0  0  0
 24 29  1  0  0  0  0
 24 22  1  0  0  0  0
 25 24  2  0  0  0  0
 26 27  2  0  0  0  0
 26 25  1  0  0  0  0
 27 28  1  0  0  0  0
 28 29  2  0  0  0  0
M  END
>  <MODEL>
6

>  <REMARK>
 VINA RESULT:    -6.421      3.897      5.860
 INTER + INTRA:         -10.918
 INTER:                 -10.205
 INTRA:                  -0.713
 UNBOUND:                -1.306
  Name = CHEMBL5429923
  10 active torsions:
  status: ('A' for Active; 'I' for Inactive)
    1  A    between atoms: C_1  and  O_2
    2  A    between atoms: O_2  and  C_3
    3  A    between atoms: C_5  and  C_6
    4  A    between atoms: C_6  and  N_7
    5  A    between atoms: C_8  and  C_10
    6  A    between atoms: C_10  and  C_11
    7  A    between atoms: C_11  and  C_12
    8  A    between atoms: C_12  and  C_13
    9  A    between atoms: C_16  and  C_17
   10  A    between atoms: C_26  and  O_27
                            x       y       z     vdW  Elec       q    Type
                         _______ _______ _______ _____ _____    ______ ____

>  <TORSDO>
F 9

>  <SCORE>
-6.421

>  <RMSD_LB>
3.897

>  <RMSD_UB>
5.860

$$$$
CHEMBL5429923
 OpenBabel10172500303D

 29 31  0  0  0  0  0  0  0  0999 V2000
  147.3940  136.7000  149.6570 N   0  0  0  0  0  0  0  0  0  0  0  0
  147.1610  136.3220  148.3560 C   0  0  0  0  0  0  0  0  0  0  0  0
  146.4930  135.3370  148.0560 O   0  0  0  0  0  0  0  0  0  0  0  0
  147.9510  137.4920  149.8350 H   0  0  0  0  0  0  0  0  0  0  0  0
  146.8400  135.9620  150.7710 C   0  0  0  0  0  2  0  0  0  0  0  0
  146.7990  138.9920  153.1020 C   0  0  0  0  0  0  0  0  0  0  0  0
  147.0040  138.1760  151.9810 C   0  0  0  0  0  3  0  0  0  0  0  0
  146.5760  136.8350  151.9730 C   0  0  0  0  0  0  0  0  0  0  0  0
  145.9110  136.3250  153.0960 C   0  0  0  0  0  3  0  0  0  0  0  0
  145.7010  137.1280  154.2170 C   0  0  0  0  0  3  0  0  0  0  0  0
  146.1460  138.4500  154.2160 C   0  0  0  0  0  0  0  0  0  0  0  0
  148.5850  140.5550  153.3350 C   0  0  0  0  0  1  0  0  0  0  0  0
  147.1930  140.3000  153.2060 O   0  0  0  0  0  0  0  0  0  0  0  0
  145.9460  139.2340  155.3220 O   0  0  0  0  0  0  0  0  0  0  0  0
  145.8680  138.8390  156.1680 H   0  0  0  0  0  0  0  0  0  0  0  0
  147.7840  137.2510  147.3270 C   0  0  0  0  0  2  0  0  0  0  0  0
  147.3960  138.7090  147.5820 C   0  0  0  0  0  2  0  0  0  0  0  0
  145.9120  138.9670  147.3170 C   0  0  0  0  0  2  0  0  0  0  0  0
  145.1730  139.3160  148.5800 C   0  0  0  0  0  0  0  0  0  0  0  0
  145.2500  140.4780  149.3160 C   0  0  0  0  0  3  0  0  0  0  0  0
  144.4140  140.4450  150.4710 C   0  0  0  0  0  3  0  0  0  0  0  0
  143.7160  139.2550  150.5980 C   0  0  0  0  0  0  0  0  0  0  0  0
  144.0780  138.2060  149.2850 S   0  0  0  0  0  0  0  0  0  0  0  0
  142.7670  138.8610  151.6520 C   0  0  0  0  0  0  0  0  0  0  0  0
  142.9720  139.2420  152.9840 C   0  0  0  0  0  3  0  0  0  0  0  0
  142.0840  138.8350  153.9810 C   0  0  0  0  0  3  0  0  0  0  0  0
  141.0040  138.0490  153.6190 C   0  0  0  0  0  3  0  0  0  0  0  0
  140.7610  137.6560  152.3530 N   0  0  0  0  0  0  0  0  0  0  0  0
  141.6440  138.0700  151.4060 C   0  0  0  0  0  3  0  0  0  0  0  0
  1  4  1  0  0  0  0
  1  5  1  0  0  0  0
  2  1  1  0  0  0  0
  3  2  2  0  0  0  0
  5  8  1  0  0  0  0
  6 13  1  0  0  0  0
  6 11  1  0  0  0  0
  7  6  2  0  0  0  0
  8  7  1  0  0  0  0
  8  9  2  0  0  0  0
  9 10  1  0  0  0  0
 11 10  2  0  0  0  0
 11 14  1  0  0  0  0
 13 12  1  0  0  0  0
 14 15  1  0  0  0  0
 16 17  1  0  0  0  0
 16  2  1  0  0  0  0
 18 17  1  0  0  0  0
 18 19  1  0  0  0  0
 19 23  1  0  0  0  0
 19 20  2  0  0  0  0
 20 21  1  0  0  0  0
 21 22  2  0  0  0  0
 22 24  1  0  0  0  0
 23 22  1  0  0  0  0
 24 25  1  0  0  0  0
 25 26  2  0  0  0  0
 27 26  1  0  0  0  0
 28 27  2  0  0  0  0
 29 24  2  0  0  0  0
 29 28  1  0  0  0  0
M  END
>  <MODEL>
7

>  <REMARK>
 VINA RESULT:    -6.349      6.922     10.238
 INTER + INTRA:         -10.811
 INTER:                  -8.490
 INTRA:                  -2.321
 UNBOUND:                -1.306
  Name = CHEMBL5429923
  10 active torsions:
  status: ('A' for Active; 'I' for Inactive)
    1  A    between atoms: C_1  and  O_2
    2  A    between atoms: O_2  and  C_3
    3  A    between atoms: C_5  and  C_6
    4  A    between atoms: C_6  and  N_7
    5  A    between atoms: C_8  and  C_10
    6  A    between atoms: C_10  and  C_11
    7  A    between atoms: C_11  and  C_12
    8  A    between atoms: C_12  and  C_13
    9  A    between atoms: C_16  and  C_17
   10  A    between atoms: C_26  and  O_27
                            x       y       z     vdW  Elec       q    Type
                         _______ _______ _______ _____ _____    ______ ____

>  <TORSDO>
F 9

>  <SCORE>
-6.349

>  <RMSD_LB>
6.922

>  <RMSD_UB>
10.238

$$$$
CHEMBL5429923
 OpenBabel10172500303D

 29 31  0  0  0  0  0  0  0  0999 V2000
  135.9390  132.7090  145.0070 N   0  0  0  0  0  0  0  0  0  0  0  0
  135.9360  131.8030  143.9730 C   0  0  0  0  0  0  0  0  0  0  0  0
  134.9620  131.1080  143.6970 O   0  0  0  0  0  0  0  0  0  0  0  0
  136.7550  133.2280  145.1890 H   0  0  0  0  0  0  0  0  0  0  0  0
  134.7720  132.9180  145.8350 C   0  0  0  0  0  2  0  0  0  0  0  0
  134.2920  135.2060  148.8590 C   0  0  0  0  0  0  0  0  0  0  0  0
  134.0290  134.4070  147.7390 C   0  0  0  0  0  3  0  0  0  0  0  0
  135.0700  133.7430  147.0630 C   0  0  0  0  0  0  0  0  0  0  0  0
  136.3810  133.8650  147.5420 C   0  0  0  0  0  3  0  0  0  0  0  0
  136.6540  134.6570  148.6570 C   0  0  0  0  0  3  0  0  0  0  0  0
  135.6140  135.3230  149.3060 C   0  0  0  0  0  0  0  0  0  0  0  0
  132.7730  137.0430  148.9500 C   0  0  0  0  0  1  0  0  0  0  0  0
  133.3480  135.9010  149.5700 O   0  0  0  0  0  0  0  0  0  0  0  0
  135.8860  136.1080  150.3960 O   0  0  0  0  0  0  0  0  0  0  0  0
  135.1960  136.5830  150.8150 H   0  0  0  0  0  0  0  0  0  0  0  0
  137.2370  131.7640  143.1880 C   0  0  0  0  0  2  0  0  0  0  0  0
  137.1660  132.6500  141.9430 C   0  0  0  0  0  2  0  0  0  0  0  0
  138.0470  133.8950  142.0680 C   0  0  0  0  0  2  0  0  0  0  0  0
  137.4700  134.8910  143.0350 C   0  0  0  0  0  0  0  0  0  0  0  0
  136.2710  135.5670  142.9450 C   0  0  0  0  0  3  0  0  0  0  0  0
  136.0640  136.4500  144.0440 C   0  0  0  0  0  3  0  0  0  0  0  0
  137.1090  136.4380  144.9530 C   0  0  0  0  0  0  0  0  0  0  0  0
  138.3200  135.3220  144.4550 S   0  0  0  0  0  0  0  0  0  0  0  0
  137.2480  137.2110  146.1980 C   0  0  0  0  0  0  0  0  0  0  0  0
  138.4990  137.3720  146.8080 C   0  0  0  0  0  3  0  0  0  0  0  0
  138.6150  138.0790  148.0060 C   0  0  0  0  0  3  0  0  0  0  0  0
  137.4680  138.6100  148.5690 C   0  0  0  0  0  3  0  0  0  0  0  0
  136.2430  138.4840  148.0230 N   0  0  0  0  0  0  0  0  0  0  0  0
  136.1640  137.7910  146.8570 C   0  0  0  0  0  3  0  0  0  0  0  0
  1  4  1  0  0  0  0
  1  5  1  0  0  0  0
  2  1  1  0  0  0  0
  3  2  2  0  0  0  0
  5  8  1  0  0  0  0
  6 11  1  0  0  0  0
  6 13  1  0  0  0  0
  7  6  2  0  0  0  0
  8  9  2  0  0  0  0
  8  7  1  0  0  0  0
  9 10  1  0  0  0  0
 10 11  2  0  0  0  0
 11 14  1  0  0  0  0
 12 13  1  0  0  0  0
 14 15  1  0  0  0  0
 16  2  1  0  0  0  0
 17 18  1  0  0  0  0
 17 16  1  0  0  0  0
 18 19  1  0  0  0  0
 19 23  1  0  0  0  0
 20 19  2  0  0  0  0
 20 21  1  0  0  0  0
 21 22  2  0  0  0  0
 22 24  1  0  0  0  0
 23 22  1  0  0  0  0
 24 25  2  0  0  0  0
 24 29  1  0  0  0  0
 25 26  1  0  0  0  0
 26 27  2  0  0  0  0
 28 27  1  0  0  0  0
 29 28  2  0  0  0  0
M  END
>  <MODEL>
8

>  <REMARK>
 VINA RESULT:    -6.289      5.238      8.472
 INTER + INTRA:         -10.721
 INTER:                  -8.457
 INTRA:                  -2.264
 UNBOUND:                -1.306
  Name = CHEMBL5429923
  10 active torsions:
  status: ('A' for Active; 'I' for Inactive)
    1  A    between atoms: C_1  and  O_2
    2  A    between atoms: O_2  and  C_3
    3  A    between atoms: C_5  and  C_6
    4  A    between atoms: C_6  and  N_7
    5  A    between atoms: C_8  and  C_10
    6  A    between atoms: C_10  and  C_11
    7  A    between atoms: C_11  and  C_12
    8  A    between atoms: C_12  and  C_13
    9  A    between atoms: C_16  and  C_17
   10  A    between atoms: C_26  and  O_27
                            x       y       z     vdW  Elec       q    Type
                         _______ _______ _______ _____ _____    ______ ____

>  <TORSDO>
F 9

>  <SCORE>
-6.289

>  <RMSD_LB>
5.238

>  <RMSD_UB>
8.472

$$$$
CHEMBL5429923
 OpenBabel10172500303D

 29 31  0  0  0  0  0  0  0  0999 V2000
  139.5600  138.2770  150.8100 N   0  0  0  0  0  0  0  0  0  0  0  0
  138.7000  138.1950  149.7410 C   0  0  0  0  0  0  0  0  0  0  0  0
  137.7140  138.9170  149.6200 O   0  0  0  0  0  0  0  0  0  0  0  0
  140.3250  137.6600  150.8600 H   0  0  0  0  0  0  0  0  0  0  0  0
  139.3680  139.2480  151.8640 C   0  0  0  0  0  2  0  0  0  0  0  0
  139.3330  138.2190  155.5460 C   0  0  0  0  0  0  0  0  0  0  0  0
  138.9170  138.6520  154.2800 C   0  0  0  0  0  3  0  0  0  0  0  0
  139.8270  138.7440  153.2100 C   0  0  0  0  0  0  0  0  0  0  0  0
  141.1610  138.3680  153.4170 C   0  0  0  0  0  3  0  0  0  0  0  0
  141.5860  137.9360  154.6730 C   0  0  0  0  0  3  0  0  0  0  0  0
  140.6760  137.8670  155.7270 C   0  0  0  0  0  0  0  0  0  0  0  0
  137.1320  137.9410  156.4210 C   0  0  0  0  0  1  0  0  0  0  0  0
  138.5240  138.1130  156.6470 O   0  0  0  0  0  0  0  0  0  0  0  0
  141.0980  137.4500  156.9620 O   0  0  0  0  0  0  0  0  0  0  0  0
  141.3040  136.5470  157.1070 H   0  0  0  0  0  0  0  0  0  0  0  0
  139.0970  137.1470  148.7130 C   0  0  0  0  0  2  0  0  0  0  0  0
  140.2580  136.2860  149.2130 C   0  0  0  0  0  2  0  0  0  0  0  0
  141.5610  136.5820  148.4660 C   0  0  0  0  0  2  0  0  0  0  0  0
  142.5860  137.2180  149.3650 C   0  0  0  0  0  0  0  0  0  0  0  0
  143.0940  136.7330  150.5510 C   0  0  0  0  0  3  0  0  0  0  0  0
  144.0400  137.6230  151.1380 C   0  0  0  0  0  3  0  0  0  0  0  0
  144.2350  138.7750  150.3940 C   0  0  0  0  0  0  0  0  0  0  0  0
  143.2710  138.7350  148.9700 S   0  0  0  0  0  0  0  0  0  0  0  0
  145.1260  139.9110  150.6810 C   0  0  0  0  0  0  0  0  0  0  0  0
  146.4910  139.7100  150.9220 C   0  0  0  0  0  3  0  0  0  0  0  0
  147.3210  140.7900  151.2270 C   0  0  0  0  0  3  0  0  0  0  0  0
  146.7610  142.0540  151.2850 C   0  0  0  0  0  3  0  0  0  0  0  0
  145.4550  142.3010  151.0610 N   0  0  0  0  0  0  0  0  0  0  0  0
  144.6740  141.2280  150.7660 C   0  0  0  0  0  3  0  0  0  0  0  0
  1  4  1  0  0  0  0
  1  5  1  0  0  0  0
  2  1  1  0  0  0  0
  3  2  2  0  0  0  0
  5  8  1  0  0  0  0
  6 11  1  0  0  0  0
  6 13  1  0  0  0  0
  7  6  2  0  0  0  0
  8  9  2  0  0  0  0
  8  7  1  0  0  0  0
  9 10  1  0  0  0  0
 10 11  2  0  0  0  0
 11 14  1  0  0  0  0
 12 13  1  0  0  0  0
 14 15  1  0  0  0  0
 16 17  1  0  0  0  0
 16  2  1  0  0  0  0
 18 17  1  0  0  0  0
 18 19  1  0  0  0  0
 19 20  2  0  0  0  0
 20 21  1  0  0  0  0
 22 24  1  0  0  0  0
 22 21  2  0  0  0  0
 23 19  1  0  0  0  0
 23 22  1  0  0  0  0
 24 29  2  0  0  0  0
 24 25  1  0  0  0  0
 25 26  2  0  0  0  0
 26 27  1  0  0  0  0
 28 27  2  0  0  0  0
 29 28  1  0  0  0  0
M  END
>  <MODEL>
9

>  <REMARK>
 VINA RESULT:    -6.273      4.416      8.173
 INTER + INTRA:         -10.697
 INTER:                  -9.391
 INTRA:                  -1.306
 UNBOUND:                -1.306
  Name = CHEMBL5429923
  10 active torsions:
  status: ('A' for Active; 'I' for Inactive)
    1  A    between atoms: C_1  and  O_2
    2  A    between atoms: O_2  and  C_3
    3  A    between atoms: C_5  and  C_6
    4  A    between atoms: C_6  and  N_7
    5  A    between atoms: C_8  and  C_10
    6  A    between atoms: C_10  and  C_11
    7  A    between atoms: C_11  and  C_12
    8  A    between atoms: C_12  and  C_13
    9  A    between atoms: C_16  and  C_17
   10  A    between atoms: C_26  and  O_27
                            x       y       z     vdW  Elec       q    Type
                         _______ _______ _______ _____ _____    ______ ____

>  <TORSDO>
F 9

>  <SCORE>
-6.273

>  <RMSD_LB>
4.416

>  <RMSD_UB>
8.173

$$$$
