CHEMBL87547
 OpenBabel10172500473D

 21 21  0  0  0  0  0  0  0  0999 V2000
  144.5780  137.3960  153.4300 C   0  0  0  0  0  2  0  0  0  0  0  0
  143.0970  137.6080  153.2590 C   0  0  0  0  0  0  0  0  0  0  0  0
  142.4980  137.4100  152.0110 C   0  0  0  0  0  3  0  0  0  0  0  0
  141.1300  137.6280  151.8390 C   0  0  0  0  0  3  0  0  0  0  0  0
  140.3390  138.0340  152.9200 C   0  0  0  0  0  0  0  0  0  0  0  0
  140.9120  138.2260  154.1820 C   0  0  0  0  0  0  0  0  0  0  0  0
  142.2900  138.0030  154.3380 C   0  0  0  0  0  3  0  0  0  0  0  0
  139.0040  138.2330  152.6980 O   0  0  0  0  0  0  0  0  0  0  0  0
  138.4360  137.4990  152.5690 H   0  0  0  0  0  0  0  0  0  0  0  0
  140.2970  138.6230  155.3400 O   0  0  0  0  0  0  0  0  0  0  0  0
  140.2480  137.6980  156.4180 C   0  0  0  0  0  1  0  0  0  0  0  0
  146.2250  138.9620  154.3830 C   0  0  0  0  0  0  0  0  0  0  0  0
  146.5300  138.2090  155.3040 O   0  0  0  0  0  0  0  0  0  0  0  0
  145.2960  138.6500  153.4220 N   0  0  0  0  0  0  0  0  0  0  0  0
  145.1140  139.3000  152.7050 H   0  0  0  0  0  0  0  0  0  0  0  0
  146.8810  140.3200  154.2220 C   0  0  0  0  0  2  0  0  0  0  0  0
  147.8990  140.3700  153.0850 C   0  0  0  0  0  2  0  0  0  0  0  0
  147.6870  141.5740  152.1640 C   0  0  0  0  0  2  0  0  0  0  0  0
  146.3760  142.2860  152.4930 C   0  0  0  0  0  2  0  0  0  0  0  0
  146.5300  142.6980  150.0190 C   0  0  0  0  0  1  0  0  0  0  0  0
  145.6090  142.6540  151.2240 C   0  0  0  0  0  2  0  0  0  0  0  0
  2  1  1  0  0  0  0
  2  7  1  0  0  0  0
  3  2  2  0  0  0  0
  4  3  1  0  0  0  0
  4  5  2  0  0  0  0
  5  6  1  0  0  0  0
  6  7  2  0  0  0  0
  6 10  1  0  0  0  0
  8  5  1  0  0  0  0
  9  8  1  0  0  0  0
 10 11  1  0  0  0  0
 12 13  2  0  0  0  0
 14  1  1  0  0  0  0
 14 12  1  0  0  0  0
 15 14  1  0  0  0  0
 16 12  1  0  0  0  0
 17 16  1  0  0  0  0
 18 19  1  0  0  0  0
 18 17  1  0  0  0  0
 20 21  1  0  0  0  0
 21 19  1  0  0  0  0
M  END
>  <MODEL>
1

>  <REMARK>
 VINA RESULT:    -5.890      0.000      0.000
 INTER + INTRA:          -9.558
 INTER:                  -8.895
 INTRA:                  -0.664
 UNBOUND:                -0.742
  Name = CHEMBL87547
  11 active torsions:
  status: ('A' for Active; 'I' for Inactive)
    1  A    between atoms: C_1  and  C_2
    2  A    between atoms: C_2  and  C_3
    3  A    between atoms: C_3  and  C_4
    4  A    between atoms: C_4  and  C_5
    5  A    between atoms: C_5  and  C_6
    6  A    between atoms: C_6  and  C_7
    7  A    between atoms: N_9  and  C_10
    8  A    between atoms: C_10  and  C_11
    9  A    between atoms: C_14  and  O_15
   10  A    between atoms: C_16  and  O_17
   11  A    between atoms: O_17  and  C_18
                            x       y       z     vdW  Elec       q    Type
                         _______ _______ _______ _____ _____    ______ ____

>  <TORSDO>
F 9

>  <SCORE>
-5.890

>  <RMSD_LB>
0.000

>  <RMSD_UB>
0.000

$$$$
CHEMBL87547
 OpenBabel10172500473D

 21 21  0  0  0  0  0  0  0  0999 V2000
  143.4440  137.2680  152.7630 C   0  0  0  0  0  2  0  0  0  0  0  0
  142.1000  137.8370  153.1330 C   0  0  0  0  0  0  0  0  0  0  0  0
  141.8790  138.3400  154.4190 C   0  0  0  0  0  3  0  0  0  0  0  0
  140.6280  138.8470  154.7750 C   0  0  0  0  0  3  0  0  0  0  0  0
  139.5840  138.8700  153.8440 C   0  0  0  0  0  0  0  0  0  0  0  0
  139.7840  138.3850  152.5460 C   0  0  0  0  0  0  0  0  0  0  0  0
  141.0480  137.8780  152.2040 C   0  0  0  0  0  3  0  0  0  0  0  0
  138.3790  139.3780  154.2440 O   0  0  0  0  0  0  0  0  0  0  0  0
  138.2360  139.5910  155.1450 H   0  0  0  0  0  0  0  0  0  0  0  0
  138.8830  138.3260  151.5160 O   0  0  0  0  0  0  0  0  0  0  0  0
  137.9640  137.2430  151.4950 C   0  0  0  0  0  1  0  0  0  0  0  0
  145.3510  138.8270  152.8410 C   0  0  0  0  0  0  0  0  0  0  0  0
  145.6660  138.5140  153.9850 O   0  0  0  0  0  0  0  0  0  0  0  0
  144.2950  138.2700  152.1630 N   0  0  0  0  0  0  0  0  0  0  0  0
  144.1120  138.5610  151.2410 H   0  0  0  0  0  0  0  0  0  0  0  0
  146.1370  139.8630  152.0600 C   0  0  0  0  0  2  0  0  0  0  0  0
  145.5540  141.2710  152.1660 C   0  0  0  0  0  2  0  0  0  0  0  0
  146.6070  142.3090  152.5630 C   0  0  0  0  0  2  0  0  0  0  0  0
  147.3670  141.8640  153.8110 C   0  0  0  0  0  2  0  0  0  0  0  0
  149.2000  142.0650  152.1050 C   0  0  0  0  0  1  0  0  0  0  0  0
  148.8760  141.8600  153.5730 C   0  0  0  0  0  2  0  0  0  0  0  0
  1  2  1  0  0  0  0
  2  3  1  0  0  0  0
  3  4  2  0  0  0  0
  5  8  1  0  0  0  0
  5  4  1  0  0  0  0
  6  5  2  0  0  0  0
  7  6  1  0  0  0  0
  7  2  2  0  0  0  0
  8  9  1  0  0  0  0
 10  6  1  0  0  0  0
 11 10  1  0  0  0  0
 12 13  2  0  0  0  0
 14  1  1  0  0  0  0
 14 12  1  0  0  0  0
 15 14  1  0  0  0  0
 16 17  1  0  0  0  0
 16 12  1  0  0  0  0
 17 18  1  0  0  0  0
 18 19  1  0  0  0  0
 20 21  1  0  0  0  0
 21 19  1  0  0  0  0
M  END
>  <MODEL>
2

>  <REMARK>
 VINA RESULT:    -5.809      1.499      2.689
 INTER + INTRA:          -9.438
 INTER:                  -8.722
 INTRA:                  -0.716
 UNBOUND:                -0.742
  Name = CHEMBL87547
  11 active torsions:
  status: ('A' for Active; 'I' for Inactive)
    1  A    between atoms: C_1  and  C_2
    2  A    between atoms: C_2  and  C_3
    3  A    between atoms: C_3  and  C_4
    4  A    between atoms: C_4  and  C_5
    5  A    between atoms: C_5  and  C_6
    6  A    between atoms: C_6  and  C_7
    7  A    between atoms: N_9  and  C_10
    8  A    between atoms: C_10  and  C_11
    9  A    between atoms: C_14  and  O_15
   10  A    between atoms: C_16  and  O_17
   11  A    between atoms: O_17  and  C_18
                            x       y       z     vdW  Elec       q    Type
                         _______ _______ _______ _____ _____    ______ ____

>  <TORSDO>
F 9

>  <SCORE>
-5.809

>  <RMSD_LB>
1.499

>  <RMSD_UB>
2.689

$$$$
CHEMBL87547
 OpenBabel10172500473D

 21 21  0  0  0  0  0  0  0  0999 V2000
  133.1190  134.9050  151.9390 C   0  0  0  0  0  2  0  0  0  0  0  0
  133.2330  134.4460  150.5090 C   0  0  0  0  0  0  0  0  0  0  0  0
  133.7740  133.1910  150.2140 C   0  0  0  0  0  3  0  0  0  0  0  0
  133.9040  132.7700  148.8900 C   0  0  0  0  0  3  0  0  0  0  0  0
  133.4800  133.5940  147.8420 C   0  0  0  0  0  0  0  0  0  0  0  0
  132.9220  134.8490  148.1110 C   0  0  0  0  0  0  0  0  0  0  0  0
  132.7980  135.2580  149.4490 C   0  0  0  0  0  3  0  0  0  0  0  0
  133.6290  133.1330  146.5630 O   0  0  0  0  0  0  0  0  0  0  0  0
  133.7590  133.7370  145.8590 H   0  0  0  0  0  0  0  0  0  0  0  0
  132.4610  135.7800  147.2190 O   0  0  0  0  0  0  0  0  0  0  0  0
  132.8720  137.1290  147.3920 C   0  0  0  0  0  1  0  0  0  0  0  0
  134.5410  135.0770  153.9440 C   0  0  0  0  0  0  0  0  0  0  0  0
  133.5870  135.1490  154.7140 O   0  0  0  0  0  0  0  0  0  0  0  0
  134.4120  134.9480  152.5840 N   0  0  0  0  0  0  0  0  0  0  0  0
  135.2230  134.8810  152.0310 H   0  0  0  0  0  0  0  0  0  0  0  0
  135.9700  135.1060  154.4510 C   0  0  0  0  0  2  0  0  0  0  0  0
  136.2590  136.2790  155.3850 C   0  0  0  0  0  2  0  0  0  0  0  0
  137.3300  135.9450  156.4270 C   0  0  0  0  0  2  0  0  0  0  0  0
  137.1550  136.8000  157.6810 C   0  0  0  0  0  2  0  0  0  0  0  0
  136.5190  134.7400  158.9710 C   0  0  0  0  0  1  0  0  0  0  0  0
  136.1490  136.1760  158.6450 C   0  0  0  0  0  2  0  0  0  0  0  0
  1 14  1  0  0  0  0
  2  1  1  0  0  0  0
  3  2  1  0  0  0  0
  4  3  2  0  0  0  0
  5  6  2  0  0  0  0
  5  4  1  0  0  0  0
  6  7  1  0  0  0  0
  7  2  2  0  0  0  0
  8  5  1  0  0  0  0
  9  8  1  0  0  0  0
 10 11  1  0  0  0  0
 10  6  1  0  0  0  0
 12 16  1  0  0  0  0
 12 13  2  0  0  0  0
 14 12  1  0  0  0  0
 15 14  1  0  0  0  0
 16 17  1  0  0  0  0
 17 18  1  0  0  0  0
 18 19  1  0  0  0  0
 19 21  1  0  0  0  0
 21 20  1  0  0  0  0
M  END
>  <MODEL>
3

>  <REMARK>
 VINA RESULT:    -5.790      9.338     11.747
 INTER + INTRA:          -9.408
 INTER:                  -8.967
 INTRA:                  -0.441
 UNBOUND:                -0.742
  Name = CHEMBL87547
  11 active torsions:
  status: ('A' for Active; 'I' for Inactive)
    1  A    between atoms: C_1  and  C_2
    2  A    between atoms: C_2  and  C_3
    3  A    between atoms: C_3  and  C_4
    4  A    between atoms: C_4  and  C_5
    5  A    between atoms: C_5  and  C_6
    6  A    between atoms: C_6  and  C_7
    7  A    between atoms: N_9  and  C_10
    8  A    between atoms: C_10  and  C_11
    9  A    between atoms: C_14  and  O_15
   10  A    between atoms: C_16  and  O_17
   11  A    between atoms: O_17  and  C_18
                            x       y       z     vdW  Elec       q    Type
                         _______ _______ _______ _____ _____    ______ ____

>  <TORSDO>
F 9

>  <SCORE>
-5.790

>  <RMSD_LB>
9.338

>  <RMSD_UB>
11.747

$$$$
CHEMBL87547
 OpenBabel10172500473D

 21 21  0  0  0  0  0  0  0  0999 V2000
  139.5150  138.8570  154.3870 C   0  0  0  0  0  2  0  0  0  0  0  0
  139.9550  138.2430  153.0840 C   0  0  0  0  0  0  0  0  0  0  0  0
  141.2910  137.8780  152.8940 C   0  0  0  0  0  3  0  0  0  0  0  0
  141.7100  137.3310  151.6800 C   0  0  0  0  0  3  0  0  0  0  0  0
  140.7920  137.1280  150.6430 C   0  0  0  0  0  0  0  0  0  0  0  0
  139.4460  137.4720  150.8140 C   0  0  0  0  0  0  0  0  0  0  0  0
  139.0410  138.0220  152.0410 C   0  0  0  0  0  3  0  0  0  0  0  0
  141.2540  136.5880  149.4750 O   0  0  0  0  0  0  0  0  0  0  0  0
  141.8830  137.0540  148.9600 H   0  0  0  0  0  0  0  0  0  0  0  0
  138.4200  137.3480  149.9150 O   0  0  0  0  0  0  0  0  0  0  0  0
  137.5740  136.2110  150.0220 C   0  0  0  0  0  1  0  0  0  0  0  0
  137.5640  138.1550  155.7190 C   0  0  0  0  0  0  0  0  0  0  0  0
  136.9430  139.1930  155.5050 O   0  0  0  0  0  0  0  0  0  0  0  0
  138.8140  137.9000  155.2120 N   0  0  0  0  0  0  0  0  0  0  0  0
  139.2450  137.0380  155.4150 H   0  0  0  0  0  0  0  0  0  0  0  0
  136.9770  137.0410  156.5650 C   0  0  0  0  0  2  0  0  0  0  0  0
  136.5660  135.8160  155.7520 C   0  0  0  0  0  2  0  0  0  0  0  0
  135.4320  136.1210  154.7690 C   0  0  0  0  0  2  0  0  0  0  0  0
  135.8160  135.7080  153.3490 C   0  0  0  0  0  2  0  0  0  0  0  0
  135.1030  134.0810  151.5730 C   0  0  0  0  0  1  0  0  0  0  0  0
  135.3870  134.2730  153.0520 C   0  0  0  0  0  2  0  0  0  0  0  0
  1 14  1  0  0  0  0
  2  1  1  0  0  0  0
  3  2  1  0  0  0  0
  4  3  2  0  0  0  0
  5  6  2  0  0  0  0
  5  4  1  0  0  0  0
  6  7  1  0  0  0  0
  7  2  2  0  0  0  0
  8  5  1  0  0  0  0
  9  8  1  0  0  0  0
 10 11  1  0  0  0  0
 10  6  1  0  0  0  0
 12 16  1  0  0  0  0
 13 12  2  0  0  0  0
 14 15  1  0  0  0  0
 14 12  1  0  0  0  0
 17 16  1  0  0  0  0
 18 17  1  0  0  0  0
 19 18  1  0  0  0  0
 20 21  1  0  0  0  0
 21 19  1  0  0  0  0
M  END
>  <MODEL>
4

>  <REMARK>
 VINA RESULT:    -5.731      4.984      8.570
 INTER + INTRA:          -9.321
 INTER:                  -8.510
 INTRA:                  -0.811
 UNBOUND:                -0.742
  Name = CHEMBL87547
  11 active torsions:
  status: ('A' for Active; 'I' for Inactive)
    1  A    between atoms: C_1  and  C_2
    2  A    between atoms: C_2  and  C_3
    3  A    between atoms: C_3  and  C_4
    4  A    between atoms: C_4  and  C_5
    5  A    between atoms: C_5  and  C_6
    6  A    between atoms: C_6  and  C_7
    7  A    between atoms: N_9  and  C_10
    8  A    between atoms: C_10  and  C_11
    9  A    between atoms: C_14  and  O_15
   10  A    between atoms: C_16  and  O_17
   11  A    between atoms: O_17  and  C_18
                            x       y       z     vdW  Elec       q    Type
                         _______ _______ _______ _____ _____    ______ ____

>  <TORSDO>
F 9

>  <SCORE>
-5.731

>  <RMSD_LB>
4.984

>  <RMSD_UB>
8.570

$$$$
CHEMBL87547
 OpenBabel10172500473D

 21 21  0  0  0  0  0  0  0  0999 V2000
  143.8440  137.3570  153.7620 C   0  0  0  0  0  2  0  0  0  0  0  0
  143.1540  138.0920  152.6420 C   0  0  0  0  0  0  0  0  0  0  0  0
  143.7100  139.2660  152.1230 C   0  0  0  0  0  3  0  0  0  0  0  0
  143.0650  139.9640  151.1020 C   0  0  0  0  0  3  0  0  0  0  0  0
  141.8590  139.4880  150.5750 C   0  0  0  0  0  0  0  0  0  0  0  0
  141.2890  138.3090  151.0670 C   0  0  0  0  0  0  0  0  0  0  0  0
  141.9510  137.6180  152.0950 C   0  0  0  0  0  3  0  0  0  0  0  0
  141.2680  140.2100  149.5750 O   0  0  0  0  0  0  0  0  0  0  0  0
  140.5940  139.8220  149.0520 H   0  0  0  0  0  0  0  0  0  0  0  0
  140.1230  137.7040  150.6770 O   0  0  0  0  0  0  0  0  0  0  0  0
  138.9650  137.9130  151.4730 C   0  0  0  0  0  1  0  0  0  0  0  0
  146.0890  137.9200  154.6070 C   0  0  0  0  0  0  0  0  0  0  0  0
  146.6110  136.9200  154.1220 O   0  0  0  0  0  0  0  0  0  0  0  0
  144.7560  138.2210  154.4760 N   0  0  0  0  0  0  0  0  0  0  0  0
  144.4110  139.0490  154.8810 H   0  0  0  0  0  0  0  0  0  0  0  0
  146.9000  138.9360  155.3890 C   0  0  0  0  0  2  0  0  0  0  0  0
  148.0190  139.5770  154.5720 C   0  0  0  0  0  2  0  0  0  0  0  0
  147.6870  141.0110  154.1530 C   0  0  0  0  0  2  0  0  0  0  0  0
  146.9910  141.0340  152.7930 C   0  0  0  0  0  2  0  0  0  0  0  0
  145.7460  142.5380  151.2120 C   0  0  0  0  0  1  0  0  0  0  0  0
  146.0540  142.2340  152.6670 C   0  0  0  0  0  2  0  0  0  0  0  0
  1 14  1  0  0  0  0
  2  1  1  0  0  0  0
  3  2  1  0  0  0  0
  4  3  2  0  0  0  0
  5  6  2  0  0  0  0
  5  4  1  0  0  0  0
  6  7  1  0  0  0  0
  7  2  2  0  0  0  0
  8  5  1  0  0  0  0
  9  8  1  0  0  0  0
 10  6  1  0  0  0  0
 10 11  1  0  0  0  0
 12 16  1  0  0  0  0
 13 12  2  0  0  0  0
 14 12  1  0  0  0  0
 14 15  1  0  0  0  0
 17 16  1  0  0  0  0
 18 17  1  0  0  0  0
 19 18  1  0  0  0  0
 20 21  1  0  0  0  0
 21 19  1  0  0  0  0
M  END
>  <MODEL>
5

>  <REMARK>
 VINA RESULT:    -5.636      1.984      2.629
 INTER + INTRA:          -9.179
 INTER:                  -8.162
 INTRA:                  -1.017
 UNBOUND:                -0.742
  Name = CHEMBL87547
  11 active torsions:
  status: ('A' for Active; 'I' for Inactive)
    1  A    between atoms: C_1  and  C_2
    2  A    between atoms: C_2  and  C_3
    3  A    between atoms: C_3  and  C_4
    4  A    between atoms: C_4  and  C_5
    5  A    between atoms: C_5  and  C_6
    6  A    between atoms: C_6  and  C_7
    7  A    between atoms: N_9  and  C_10
    8  A    between atoms: C_10  and  C_11
    9  A    between atoms: C_14  and  O_15
   10  A    between atoms: C_16  and  O_17
   11  A    between atoms: O_17  and  C_18
                            x       y       z     vdW  Elec       q    Type
                         _______ _______ _______ _____ _____    ______ ____

>  <TORSDO>
F 9

>  <SCORE>
-5.636

>  <RMSD_LB>
1.984

>  <RMSD_UB>
2.629

$$$$
CHEMBL87547
 OpenBabel10172500473D

 21 21  0  0  0  0  0  0  0  0999 V2000
  143.5550  137.7870  151.3540 C   0  0  0  0  0  2  0  0  0  0  0  0
  142.1020  137.8060  151.7490 C   0  0  0  0  0  0  0  0  0  0  0  0
  141.1180  137.4250  150.8310 C   0  0  0  0  0  3  0  0  0  0  0  0
  139.7680  137.4630  151.1830 C   0  0  0  0  0  3  0  0  0  0  0  0
  139.3840  137.8690  152.4660 C   0  0  0  0  0  0  0  0  0  0  0  0
  140.3500  138.2410  153.4080 C   0  0  0  0  0  0  0  0  0  0  0  0
  141.7050  138.1980  153.0380 C   0  0  0  0  0  3  0  0  0  0  0  0
  138.0490  137.8870  152.7590 O   0  0  0  0  0  0  0  0  0  0  0  0
  137.6550  137.1580  153.1970 H   0  0  0  0  0  0  0  0  0  0  0  0
  140.1580  138.6640  154.6960 O   0  0  0  0  0  0  0  0  0  0  0  0
  141.2340  138.5210  155.6120 C   0  0  0  0  0  1  0  0  0  0  0  0
  144.4090  140.0900  151.1510 C   0  0  0  0  0  0  0  0  0  0  0  0
  143.9520  140.2470  150.0220 O   0  0  0  0  0  0  0  0  0  0  0  0
  144.2590  138.9350  151.8780 N   0  0  0  0  0  0  0  0  0  0  0  0
  144.6420  138.8880  152.7840 H   0  0  0  0  0  0  0  0  0  0  0  0
  145.1760  141.1930  151.8540 C   0  0  0  0  0  2  0  0  0  0  0  0
  145.5890  142.3320  150.9240 C   0  0  0  0  0  2  0  0  0  0  0  0
  147.0360  142.1960  150.4430 C   0  0  0  0  0  2  0  0  0  0  0  0
  147.8380  141.2900  151.3760 C   0  0  0  0  0  2  0  0  0  0  0  0
  148.9420  141.5320  153.6200 C   0  0  0  0  0  1  0  0  0  0  0  0
  148.8310  142.0930  152.2130 C   0  0  0  0  0  2  0  0  0  0  0  0
  1  2  1  0  0  0  0
  1 14  1  0  0  0  0
  2  7  1  0  0  0  0
  3  4  1  0  0  0  0
  3  2  2  0  0  0  0
  4  5  2  0  0  0  0
  5  8  1  0  0  0  0
  5  6  1  0  0  0  0
  6 10  1  0  0  0  0
  7  6  2  0  0  0  0
  8  9  1  0  0  0  0
 10 11  1  0  0  0  0
 12 16  1  0  0  0  0
 12 14  1  0  0  0  0
 13 12  2  0  0  0  0
 14 15  1  0  0  0  0
 17 16  1  0  0  0  0
 18 17  1  0  0  0  0
 18 19  1  0  0  0  0
 19 21  1  0  0  0  0
 21 20  1  0  0  0  0
M  END
>  <MODEL>
6

>  <REMARK>
 VINA RESULT:    -5.622      2.108      2.740
 INTER + INTRA:          -9.158
 INTER:                  -8.500
 INTRA:                  -0.657
 UNBOUND:                -0.742
  Name = CHEMBL87547
  11 active torsions:
  status: ('A' for Active; 'I' for Inactive)
    1  A    between atoms: C_1  and  C_2
    2  A    between atoms: C_2  and  C_3
    3  A    between atoms: C_3  and  C_4
    4  A    between atoms: C_4  and  C_5
    5  A    between atoms: C_5  and  C_6
    6  A    between atoms: C_6  and  C_7
    7  A    between atoms: N_9  and  C_10
    8  A    between atoms: C_10  and  C_11
    9  A    between atoms: C_14  and  O_15
   10  A    between atoms: C_16  and  O_17
   11  A    between atoms: O_17  and  C_18
                            x       y       z     vdW  Elec       q    Type
                         _______ _______ _______ _____ _____    ______ ____

>  <TORSDO>
F 9

>  <SCORE>
-5.622

>  <RMSD_LB>
2.108

>  <RMSD_UB>
2.740

$$$$
CHEMBL87547
 OpenBabel10172500473D

 21 21  0  0  0  0  0  0  0  0999 V2000
  138.1310  137.4640  151.3590 C   0  0  0  0  0  2  0  0  0  0  0  0
  139.0850  137.7450  152.4890 C   0  0  0  0  0  0  0  0  0  0  0  0
  140.4610  137.8120  152.2480 C   0  0  0  0  0  3  0  0  0  0  0  0
  141.3520  138.0490  153.2960 C   0  0  0  0  0  3  0  0  0  0  0  0
  140.8770  138.2360  154.5980 C   0  0  0  0  0  0  0  0  0  0  0  0
  139.5040  138.1870  154.8630 C   0  0  0  0  0  0  0  0  0  0  0  0
  138.6200  137.9480  153.7980 C   0  0  0  0  0  3  0  0  0  0  0  0
  141.7930  138.4660  155.5880 O   0  0  0  0  0  0  0  0  0  0  0  0
  142.3140  137.7600  155.9170 H   0  0  0  0  0  0  0  0  0  0  0  0
  138.8680  138.3430  156.0660 O   0  0  0  0  0  0  0  0  0  0  0  0
  137.4650  138.1190  156.1120 C   0  0  0  0  0  1  0  0  0  0  0  0
  135.9280  136.4280  150.9750 C   0  0  0  0  0  0  0  0  0  0  0  0
  135.9210  136.6920  149.7760 O   0  0  0  0  0  0  0  0  0  0  0  0
  136.9590  136.7550  151.8200 N   0  0  0  0  0  0  0  0  0  0  0  0
  136.9000  136.4970  152.7680 H   0  0  0  0  0  0  0  0  0  0  0  0
  134.7770  135.6860  151.6280 C   0  0  0  0  0  2  0  0  0  0  0  0
  135.1580  134.2930  152.1240 C   0  0  0  0  0  2  0  0  0  0  0  0
  134.6290  134.0100  153.5330 C   0  0  0  0  0  2  0  0  0  0  0  0
  135.3000  134.9210  154.5600 C   0  0  0  0  0  2  0  0  0  0  0  0
  135.3150  135.0820  157.0670 C   0  0  0  0  0  1  0  0  0  0  0  0
  134.4490  135.0620  155.8200 C   0  0  0  0  0  2  0  0  0  0  0  0
  1 14  1  0  0  0  0
  1  2  1  0  0  0  0
  2  7  1  0  0  0  0
  3  2  2  0  0  0  0
  3  4  1  0  0  0  0
  4  5  2  0  0  0  0
  5  6  1  0  0  0  0
  5  8  1  0  0  0  0
  6 10  1  0  0  0  0
  7  6  2  0  0  0  0
  8  9  1  0  0  0  0
 10 11  1  0  0  0  0
 12 16  1  0  0  0  0
 12 14  1  0  0  0  0
 13 12  2  0  0  0  0
 14 15  1  0  0  0  0
 16 17  1  0  0  0  0
 17 18  1  0  0  0  0
 18 19  1  0  0  0  0
 19 21  1  0  0  0  0
 21 20  1  0  0  0  0
M  END
>  <MODEL>
7

>  <REMARK>
 VINA RESULT:    -5.519      4.850      9.412
 INTER + INTRA:          -9.003
 INTER:                  -8.295
 INTRA:                  -0.708
 UNBOUND:                -0.742
  Name = CHEMBL87547
  11 active torsions:
  status: ('A' for Active; 'I' for Inactive)
    1  A    between atoms: C_1  and  C_2
    2  A    between atoms: C_2  and  C_3
    3  A    between atoms: C_3  and  C_4
    4  A    between atoms: C_4  and  C_5
    5  A    between atoms: C_5  and  C_6
    6  A    between atoms: C_6  and  C_7
    7  A    between atoms: N_9  and  C_10
    8  A    between atoms: C_10  and  C_11
    9  A    between atoms: C_14  and  O_15
   10  A    between atoms: C_16  and  O_17
   11  A    between atoms: O_17  and  C_18
                            x       y       z     vdW  Elec       q    Type
                         _______ _______ _______ _____ _____    ______ ____

>  <TORSDO>
F 9

>  <SCORE>
-5.519

>  <RMSD_LB>
4.850

>  <RMSD_UB>
9.412

$$$$
CHEMBL87547
 OpenBabel10172500473D

 21 21  0  0  0  0  0  0  0  0999 V2000
  143.5900  138.5290  153.3560 C   0  0  0  0  0  2  0  0  0  0  0  0
  142.0930  138.5260  153.5220 C   0  0  0  0  0  0  0  0  0  0  0  0
  141.5270  138.6520  154.7940 C   0  0  0  0  0  3  0  0  0  0  0  0
  140.1410  138.6250  154.9580 C   0  0  0  0  0  3  0  0  0  0  0  0
  139.3020  138.4860  153.8470 C   0  0  0  0  0  0  0  0  0  0  0  0
  139.8430  138.3710  152.5620 C   0  0  0  0  0  0  0  0  0  0  0  0
  141.2400  138.4000  152.4140 C   0  0  0  0  0  3  0  0  0  0  0  0
  137.9510  138.4660  154.0630 O   0  0  0  0  0  0  0  0  0  0  0  0
  137.3700  138.2170  153.3710 H   0  0  0  0  0  0  0  0  0  0  0  0
  139.1800  138.2250  151.3730 O   0  0  0  0  0  0  0  0  0  0  0  0
  139.7390  137.3540  150.4000 C   0  0  0  0  0  1  0  0  0  0  0  0
  145.4770  140.1120  153.4520 C   0  0  0  0  0  0  0  0  0  0  0  0
  146.2740  139.3180  152.9590 O   0  0  0  0  0  0  0  0  0  0  0  0
  144.1540  139.8220  153.6740 N   0  0  0  0  0  0  0  0  0  0  0  0
  143.5710  140.5150  154.0590 H   0  0  0  0  0  0  0  0  0  0  0  0
  145.8990  141.5150  153.8450 C   0  0  0  0  0  2  0  0  0  0  0  0
  146.5190  142.3060  152.6960 C   0  0  0  0  0  2  0  0  0  0  0  0
  145.5640  142.4550  151.5080 C   0  0  0  0  0  2  0  0  0  0  0  0
  146.3370  142.7240  150.2190 C   0  0  0  0  0  2  0  0  0  0  0  0
  145.1900  140.5610  149.6530 C   0  0  0  0  0  1  0  0  0  0  0  0
  146.3220  141.5070  149.2950 C   0  0  0  0  0  2  0  0  0  0  0  0
  1  2  1  0  0  0  0
  1 14  1  0  0  0  0
  2  3  1  0  0  0  0
  3  4  2  0  0  0  0
  5  8  1  0  0  0  0
  5  4  1  0  0  0  0
  6  5  2  0  0  0  0
  7  6  1  0  0  0  0
  7  2  2  0  0  0  0
  9  8  1  0  0  0  0
 10  6  1  0  0  0  0
 11 10  1  0  0  0  0
 12 14  1  0  0  0  0
 12 16  1  0  0  0  0
 13 12  2  0  0  0  0
 14 15  1  0  0  0  0
 17 16  1  0  0  0  0
 18 17  1  0  0  0  0
 19 18  1  0  0  0  0
 21 20  1  0  0  0  0
 21 19  1  0  0  0  0
M  END
>  <MODEL>
8

>  <REMARK>
 VINA RESULT:    -5.485      1.529      2.690
 INTER + INTRA:          -8.952
 INTER:                  -8.278
 INTRA:                  -0.674
 UNBOUND:                -0.742
  Name = CHEMBL87547
  11 active torsions:
  status: ('A' for Active; 'I' for Inactive)
    1  A    between atoms: C_1  and  C_2
    2  A    between atoms: C_2  and  C_3
    3  A    between atoms: C_3  and  C_4
    4  A    between atoms: C_4  and  C_5
    5  A    between atoms: C_5  and  C_6
    6  A    between atoms: C_6  and  C_7
    7  A    between atoms: N_9  and  C_10
    8  A    between atoms: C_10  and  C_11
    9  A    between atoms: C_14  and  O_15
   10  A    between atoms: C_16  and  O_17
   11  A    between atoms: O_17  and  C_18
                            x       y       z     vdW  Elec       q    Type
                         _______ _______ _______ _____ _____    ______ ____

>  <TORSDO>
F 9

>  <SCORE>
-5.485

>  <RMSD_LB>
1.529

>  <RMSD_UB>
2.690

$$$$
CHEMBL87547
 OpenBabel10172500473D

 21 21  0  0  0  0  0  0  0  0999 V2000
  143.8510  140.4060  150.5850 C   0  0  0  0  0  2  0  0  0  0  0  0
  144.7870  140.7990  151.6980 C   0  0  0  0  0  0  0  0  0  0  0  0
  145.5330  141.9780  151.6070 C   0  0  0  0  0  3  0  0  0  0  0  0
  146.4200  142.3360  152.6230 C   0  0  0  0  0  3  0  0  0  0  0  0
  146.5610  141.5240  153.7540 C   0  0  0  0  0  0  0  0  0  0  0  0
  145.8160  140.3460  153.8760 C   0  0  0  0  0  0  0  0  0  0  0  0
  144.9290  140.0000  152.8440 C   0  0  0  0  0  3  0  0  0  0  0  0
  147.4430  141.9210  154.7210 O   0  0  0  0  0  0  0  0  0  0  0  0
  148.1890  142.4390  154.4910 H   0  0  0  0  0  0  0  0  0  0  0  0
  145.8300  139.4370  154.9010 O   0  0  0  0  0  0  0  0  0  0  0  0
  146.2400  138.1080  154.6080 C   0  0  0  0  0  1  0  0  0  0  0  0
  142.6310  138.2650  150.6210 C   0  0  0  0  0  0  0  0  0  0  0  0
  143.3770  137.7330  149.8040 O   0  0  0  0  0  0  0  0  0  0  0  0
  142.7870  139.5540  151.0660 N   0  0  0  0  0  0  0  0  0  0  0  0
  142.1570  139.9090  151.7340 H   0  0  0  0  0  0  0  0  0  0  0  0
  141.4610  137.5160  151.2300 C   0  0  0  0  0  2  0  0  0  0  0  0
  140.5720  136.8340  150.1930 C   0  0  0  0  0  2  0  0  0  0  0  0
  139.8150  137.8400  149.3220 C   0  0  0  0  0  2  0  0  0  0  0  0
  138.7500  138.5720  150.1360 C   0  0  0  0  0  2  0  0  0  0  0  0
  139.5100  140.9660  150.1010 C   0  0  0  0  0  1  0  0  0  0  0  0
  138.4880  139.9710  149.5820 C   0  0  0  0  0  2  0  0  0  0  0  0
  1 14  1  0  0  0  0
  1  2  1  0  0  0  0
  2  7  1  0  0  0  0
  3  2  2  0  0  0  0
  3  4  1  0  0  0  0
  4  5  2  0  0  0  0
  5  6  1  0  0  0  0
  5  8  1  0  0  0  0
  6 10  1  0  0  0  0
  7  6  2  0  0  0  0
  9  8  1  0  0  0  0
 11 10  1  0  0  0  0
 12 14  1  0  0  0  0
 12 16  1  0  0  0  0
 13 12  2  0  0  0  0
 14 15  1  0  0  0  0
 17 16  1  0  0  0  0
 18 19  1  0  0  0  0
 18 17  1  0  0  0  0
 21 20  1  0  0  0  0
 21 19  1  0  0  0  0
M  END
>  <MODEL>
9

>  <REMARK>
 VINA RESULT:    -5.374      2.840      6.661
 INTER + INTRA:          -8.787
 INTER:                  -8.045
 INTRA:                  -0.742
 UNBOUND:                -0.742
  Name = CHEMBL87547
  11 active torsions:
  status: ('A' for Active; 'I' for Inactive)
    1  A    between atoms: C_1  and  C_2
    2  A    between atoms: C_2  and  C_3
    3  A    between atoms: C_3  and  C_4
    4  A    between atoms: C_4  and  C_5
    5  A    between atoms: C_5  and  C_6
    6  A    between atoms: C_6  and  C_7
    7  A    between atoms: N_9  and  C_10
    8  A    between atoms: C_10  and  C_11
    9  A    between atoms: C_14  and  O_15
   10  A    between atoms: C_16  and  O_17
   11  A    between atoms: O_17  and  C_18
                            x       y       z     vdW  Elec       q    Type
                         _______ _______ _______ _____ _____    ______ ____

>  <TORSDO>
F 9

>  <SCORE>
-5.374

>  <RMSD_LB>
2.840

>  <RMSD_UB>
6.661

$$$$
