CHEMBL176469
 OpenBabel10172500043D

 31 31  0  0  1  0  0  0  0  0999 V2000
  143.5880  137.8500  152.8220 C   0  0  0  0  0  0  0  0  0  0  0  0
  142.5600  137.4050  151.9860 C   0  0  0  0  0  3  0  0  0  0  0  0
  141.2320  137.7510  152.2500 C   0  0  0  0  0  3  0  0  0  0  0  0
  140.9010  138.5250  153.3690 C   0  0  0  0  0  0  0  0  0  0  0  0
  141.9240  138.9380  154.2410 C   0  0  0  0  0  0  0  0  0  0  0  0
  143.2570  138.6280  153.9380 C   0  0  0  0  0  3  0  0  0  0  0  0
  141.7900  139.6710  155.3950 O   0  0  0  0  0  0  0  0  0  0  0  0
  142.9820  140.0410  156.0790 C   0  0  0  0  0  1  0  0  0  0  0  0
  145.0150  137.4760  152.5370 C   0  0  0  0  0  2  0  0  0  0  0  0
  146.7810  138.0490  154.1160 C   0  0  0  0  0  0  0  0  0  0  0  0
  146.8090  136.9040  154.5920 O   0  0  0  0  0  0  0  0  0  0  0  0
  145.9420  138.4230  153.1030 N   0  0  0  0  0  0  0  0  0  0  0  0
  145.9700  139.3450  152.7590 H   0  0  0  0  0  0  0  0  0  0  0  0
  147.6810  139.1470  154.6290 C   0  0  0  0  0  2  0  0  0  0  0  0
  147.2530  140.5090  154.0880 C   0  0  0  0  0  2  0  0  0  0  0  0
  148.3550  141.5610  154.2200 C   0  0  0  0  0  2  0  0  0  0  0  0
  148.9160  141.9170  152.8440 C   0  0  0  0  0  2  0  0  0  0  0  0
  148.0250  141.3890  151.7210 C   0  0  0  0  0  2  0  0  0  0  0  0
  147.8550  142.4350  150.6200 C   0  0  0  0  0  2  0  0  0  0  0  0
  145.4950  142.4160  151.4940 C   0  0  0  0  0  1  0  0  0  0  0  0
  146.3810  142.6480  150.2810 C   0  0  0  0  0  2  0  0  0  0  0  0
  139.6270  138.9120  153.6700 O   0  0  0  0  0  0  0  0  0  0  0  0
  138.6270  137.9090  153.8560 C   0  0  0  0  0  2  0  0  0  0  0  0
  138.0070  138.1290  155.2440 C   0  0  1  0  0  3  0  0  0  0  0  0
  136.9320  139.0780  155.1870 O   0  0  0  0  0  0  0  0  0  0  0  0
  136.7850  139.4540  156.0680 H   0  0  0  0  0  0  0  0  0  0  0  0
  137.4920  136.7930  155.8090 C   0  0  0  0  0  2  0  0  0  0  0  0
  136.0530  136.6420  155.5810 N   0  0  0  0  0  4  0  0  0  0  0  0
  135.7920  135.6380  154.5630 C   0  0  0  0  0  1  0  0  0  0  0  0
  135.6670  137.5350  155.2750 H   0  0  0  0  0  0  0  0  0  0  0  0
  135.6140  136.3450  156.4530 H   0  0  0  0  0  0  0  0  0  0  0  0
  1  6  1  0  0  0  0
  2  3  1  0  0  0  0
  2  1  2  0  0  0  0
  3  4  2  0  0  0  0
  4 22  1  0  0  0  0
  4  5  1  0  0  0  0
  5  7  1  0  0  0  0
  6  5  2  0  0  0  0
  7  8  1  0  0  0  0
  9  1  1  0  0  0  0
  9 12  1  0  0  0  0
 10 11  2  0  0  0  0
 10 14  1  0  0  0  0
 12 10  1  0  0  0  0
 13 12  1  0  0  0  0
 15 16  1  0  0  0  0
 15 14  1  0  0  0  0
 17 16  1  0  0  0  0
 18 17  1  0  0  0  0
 19 18  1  0  0  0  0
 21 19  1  0  0  0  0
 21 20  1  0  0  0  0
 22 23  1  0  0  0  0
 24 23  1  6  0  0  0
 24 27  1  0  0  0  0
 25 24  1  0  0  0  0
 25 26  1  0  0  0  0
 28 27  1  0  0  0  0
 28 31  1  0  0  0  0
 29 28  1  0  0  0  0
 30 28  1  0  0  0  0
M  END
>  <MODEL>
1

>  <REMARK>
 VINA RESULT:    -6.676      0.000      0.000
 INTER + INTRA:         -14.197
 INTER:                 -12.767
 INTRA:                  -1.430
 UNBOUND:                -1.471
  Name = CHEMBL176469
  19 active torsions:
  status: ('A' for Active; 'I' for Inactive)
    1  A    between atoms: C_1  and  C_2
    2  A    between atoms: C_2  and  C_3
    3  A    between atoms: C_3  and  C_4
    4  A    between atoms: C_4  and  C_5
    5  A    between atoms: C_5  and  C_6
    6  A    between atoms: C_6  and  C_7
    7  A    between atoms: C_7  and  C_8
    8  A    between atoms: C_8  and  C_9
    9  A    between atoms: N_11  and  C_12
   10  A    between atoms: C_12  and  C_13
   11  A    between atoms: C_16  and  O_17
   12  A    between atoms: O_17  and  C_18
   13  A    between atoms: C_18  and  C_19
   14  A    between atoms: C_19  and  O_20
   15  A    between atoms: C_19  and  C_21
   16  A    between atoms: C_21  and  N_22
   17  A    between atoms: N_22  and  C_23
   18  A    between atoms: C_24  and  O_25
   19  A    between atoms: O_25  and  C_26
                            x       y       z     vdW  Elec       q    Type
                         _______ _______ _______ _____ _____    ______ ____

>  <TORSDO>
F 16

>  <SCORE>
-6.676

>  <RMSD_LB>
0.000

>  <RMSD_UB>
0.000

$$$$
CHEMBL176469
 OpenBabel10172500043D

 31 31  0  0  1  0  0  0  0  0999 V2000
  139.0120  137.6580  151.6530 C   0  0  0  0  0  0  0  0  0  0  0  0
  138.9350  138.1110  152.9730 C   0  0  0  0  0  3  0  0  0  0  0  0
  140.0930  138.2600  153.7400 C   0  0  0  0  0  3  0  0  0  0  0  0
  141.3500  137.9330  153.2150 C   0  0  0  0  0  0  0  0  0  0  0  0
  141.4320  137.4330  151.9030 C   0  0  0  0  0  0  0  0  0  0  0  0
  140.2690  137.3350  151.1260 C   0  0  0  0  0  3  0  0  0  0  0  0
  142.5630  137.0340  151.2330 O   0  0  0  0  0  0  0  0  0  0  0  0
  142.7110  137.4610  149.8840 C   0  0  0  0  0  1  0  0  0  0  0  0
  137.7660  137.4960  150.8300 C   0  0  0  0  0  2  0  0  0  0  0  0
  136.2860  135.7660  151.7000 C   0  0  0  0  0  0  0  0  0  0  0  0
  135.7360  136.5500  152.4890 O   0  0  0  0  0  0  0  0  0  0  0  0
  137.2860  136.1380  150.8440 N   0  0  0  0  0  0  0  0  0  0  0  0
  137.6800  135.4730  150.2340 H   0  0  0  0  0  0  0  0  0  0  0  0
  135.8990  134.3090  151.6250 C   0  0  0  0  0  2  0  0  0  0  0  0
  134.4270  134.1100  151.9790 C   0  0  0  0  0  2  0  0  0  0  0  0
  133.7290  133.1280  151.0380 C   0  0  0  0  0  2  0  0  0  0  0  0
  132.7960  133.8780  150.0870 C   0  0  0  0  0  2  0  0  0  0  0  0
  132.9880  133.4260  148.6410 C   0  0  0  0  0  2  0  0  0  0  0  0
  134.1250  132.4100  148.5310 C   0  0  0  0  0  2  0  0  0  0  0  0
  135.9930  133.9950  147.9560 C   0  0  0  0  0  1  0  0  0  0  0  0
  135.1440  132.8300  147.4740 C   0  0  0  0  0  2  0  0  0  0  0  0
  142.5170  138.0750  153.9060 O   0  0  0  0  0  0  0  0  0  0  0  0
  142.7660  139.3000  154.5970 C   0  0  0  0  0  2  0  0  0  0  0  0
  144.2820  139.5460  154.5670 C   0  0  1  0  0  3  0  0  0  0  0  0
  144.8560  139.4000  155.8750 O   0  0  0  0  0  0  0  0  0  0  0  0
  144.8570  140.2590  156.3250 H   0  0  0  0  0  0  0  0  0  0  0  0
  144.9560  138.5650  153.5910 C   0  0  0  0  0  2  0  0  0  0  0  0
  144.8070  139.0110  152.2050 N   0  0  0  0  0  4  0  0  0  0  0  0
  146.1050  139.1700  151.5690 C   0  0  0  0  0  1  0  0  0  0  0  0
  144.3180  139.9060  152.1920 H   0  0  0  0  0  0  0  0  0  0  0  0
  144.2760  138.3070  151.6910 H   0  0  0  0  0  0  0  0  0  0  0  0
  1  2  1  0  0  0  0
  2  3  2  0  0  0  0
  4  3  1  0  0  0  0
  4 22  1  0  0  0  0
  5  4  2  0  0  0  0
  6  1  2  0  0  0  0
  6  5  1  0  0  0  0
  7  5  1  0  0  0  0
  8  7  1  0  0  0  0
  9 12  1  0  0  0  0
  9  1  1  0  0  0  0
 10 11  2  0  0  0  0
 12 10  1  0  0  0  0
 13 12  1  0  0  0  0
 14 10  1  0  0  0  0
 14 15  1  0  0  0  0
 16 15  1  0  0  0  0
 17 16  1  0  0  0  0
 18 17  1  0  0  0  0
 19 18  1  0  0  0  0
 21 20  1  0  0  0  0
 21 19  1  0  0  0  0
 22 23  1  0  0  0  0
 24 27  1  6  0  0  0
 24 23  1  0  0  0  0
 24 25  1  0  0  0  0
 25 26  1  0  0  0  0
 28 27  1  0  0  0  0
 29 28  1  0  0  0  0
 30 28  1  0  0  0  0
 31 28  1  0  0  0  0
M  END
>  <MODEL>
2

>  <REMARK>
 VINA RESULT:    -6.349      3.835     10.455
 INTER + INTRA:         -13.573
 INTER:                 -11.629
 INTRA:                  -1.944
 UNBOUND:                -1.471
  Name = CHEMBL176469
  19 active torsions:
  status: ('A' for Active; 'I' for Inactive)
    1  A    between atoms: C_1  and  C_2
    2  A    between atoms: C_2  and  C_3
    3  A    between atoms: C_3  and  C_4
    4  A    between atoms: C_4  and  C_5
    5  A    between atoms: C_5  and  C_6
    6  A    between atoms: C_6  and  C_7
    7  A    between atoms: C_7  and  C_8
    8  A    between atoms: C_8  and  C_9
    9  A    between atoms: N_11  and  C_12
   10  A    between atoms: C_12  and  C_13
   11  A    between atoms: C_16  and  O_17
   12  A    between atoms: O_17  and  C_18
   13  A    between atoms: C_18  and  C_19
   14  A    between atoms: C_19  and  O_20
   15  A    between atoms: C_19  and  C_21
   16  A    between atoms: C_21  and  N_22
   17  A    between atoms: N_22  and  C_23
   18  A    between atoms: C_24  and  O_25
   19  A    between atoms: O_25  and  C_26
                            x       y       z     vdW  Elec       q    Type
                         _______ _______ _______ _____ _____    ______ ____

>  <TORSDO>
F 16

>  <SCORE>
-6.349

>  <RMSD_LB>
3.835

>  <RMSD_UB>
10.455

$$$$
CHEMBL176469
 OpenBabel10172500043D

 31 31  0  0  1  0  0  0  0  0999 V2000
  137.2640  136.6500  155.3400 C   0  0  0  0  0  0  0  0  0  0  0  0
  138.0730  136.7770  156.4730 C   0  0  0  0  0  3  0  0  0  0  0  0
  139.2090  137.5900  156.4450 C   0  0  0  0  0  3  0  0  0  0  0  0
  139.5770  138.2690  155.2760 C   0  0  0  0  0  0  0  0  0  0  0  0
  138.7950  138.1100  154.1190 C   0  0  0  0  0  0  0  0  0  0  0  0
  137.6290  137.3330  154.1730 C   0  0  0  0  0  3  0  0  0  0  0  0
  139.0130  138.6680  152.8830 O   0  0  0  0  0  0  0  0  0  0  0  0
  139.7390  137.8950  151.9330 C   0  0  0  0  0  1  0  0  0  0  0  0
  136.0440  135.7740  155.3720 C   0  0  0  0  0  2  0  0  0  0  0  0
  134.1280  135.3240  153.9340 C   0  0  0  0  0  0  0  0  0  0  0  0
  133.3640  135.1710  154.8980 O   0  0  0  0  0  0  0  0  0  0  0  0
  135.4550  135.6260  154.0650 N   0  0  0  0  0  0  0  0  0  0  0  0
  136.0130  135.7440  153.2610 H   0  0  0  0  0  0  0  0  0  0  0  0
  133.6510  135.1750  152.5080 C   0  0  0  0  0  2  0  0  0  0  0  0
  134.3610  134.0200  151.8070 C   0  0  0  0  0  2  0  0  0  0  0  0
  133.4420  133.2740  150.8390 C   0  0  0  0  0  2  0  0  0  0  0  0
  134.2120  132.8660  149.5840 C   0  0  0  0  0  2  0  0  0  0  0  0
  134.6590  134.0840  148.7790 C   0  0  0  0  0  2  0  0  0  0  0  0
  133.4550  134.8720  148.2650 C   0  0  0  0  0  2  0  0  0  0  0  0
  134.9960  136.6790  149.0990 C   0  0  0  0  0  1  0  0  0  0  0  0
  133.6420  136.3730  148.4780 C   0  0  0  0  0  2  0  0  0  0  0  0
  140.6620  139.0920  155.1920 O   0  0  0  0  0  0  0  0  0  0  0  0
  141.9460  138.5180  154.9400 C   0  0  0  0  0  2  0  0  0  0  0  0
  142.9950  139.6170  155.1640 C   0  0  1  0  0  3  0  0  0  0  0  0
  143.2840  139.7790  156.5610 O   0  0  0  0  0  0  0  0  0  0  0  0
  144.2290  139.6250  156.7150 H   0  0  0  0  0  0  0  0  0  0  0  0
  144.2880  139.2760  154.4020 C   0  0  0  0  0  2  0  0  0  0  0  0
  145.4620  139.8390  155.0720 N   0  0  0  0  0  4  0  0  0  0  0  0
  146.4740  138.8190  155.2870 C   0  0  0  0  0  1  0  0  0  0  0  0
  145.1800  140.2250  155.9730 H   0  0  0  0  0  0  0  0  0  0  0  0
  145.8560  140.5700  154.4790 H   0  0  0  0  0  0  0  0  0  0  0  0
  1  9  1  0  0  0  0
  1  2  1  0  0  0  0
  3  2  2  0  0  0  0
  4  3  1  0  0  0  0
  5  6  1  0  0  0  0
  5  4  2  0  0  0  0
  6  1  2  0  0  0  0
  7  5  1  0  0  0  0
  8  7  1  0  0  0  0
 10 12  1  0  0  0  0
 10 11  2  0  0  0  0
 12  9  1  0  0  0  0
 13 12  1  0  0  0  0
 14 10  1  0  0  0  0
 15 14  1  0  0  0  0
 16 15  1  0  0  0  0
 17 16  1  0  0  0  0
 18 17  1  0  0  0  0
 19 21  1  0  0  0  0
 19 18  1  0  0  0  0
 21 20  1  0  0  0  0
 22  4  1  0  0  0  0
 23 24  1  0  0  0  0
 23 22  1  0  0  0  0
 24 27  1  6  0  0  0
 24 25  1  0  0  0  0
 25 26  1  0  0  0  0
 27 28  1  0  0  0  0
 28 29  1  0  0  0  0
 28 30  1  0  0  0  0
 31 28  1  0  0  0  0
M  END
>  <MODEL>
3

>  <REMARK>
 VINA RESULT:    -6.314      3.345     10.609
 INTER + INTRA:         -13.506
 INTER:                 -12.060
 INTRA:                  -1.446
 UNBOUND:                -1.471
  Name = CHEMBL176469
  19 active torsions:
  status: ('A' for Active; 'I' for Inactive)
    1  A    between atoms: C_1  and  C_2
    2  A    between atoms: C_2  and  C_3
    3  A    between atoms: C_3  and  C_4
    4  A    between atoms: C_4  and  C_5
    5  A    between atoms: C_5  and  C_6
    6  A    between atoms: C_6  and  C_7
    7  A    between atoms: C_7  and  C_8
    8  A    between atoms: C_8  and  C_9
    9  A    between atoms: N_11  and  C_12
   10  A    between atoms: C_12  and  C_13
   11  A    between atoms: C_16  and  O_17
   12  A    between atoms: O_17  and  C_18
   13  A    between atoms: C_18  and  C_19
   14  A    between atoms: C_19  and  O_20
   15  A    between atoms: C_19  and  C_21
   16  A    between atoms: C_21  and  N_22
   17  A    between atoms: N_22  and  C_23
   18  A    between atoms: C_24  and  O_25
   19  A    between atoms: O_25  and  C_26
                            x       y       z     vdW  Elec       q    Type
                         _______ _______ _______ _____ _____    ______ ____

>  <TORSDO>
F 16

>  <SCORE>
-6.314

>  <RMSD_LB>
3.345

>  <RMSD_UB>
10.609

$$$$
CHEMBL176469
 OpenBabel10172500043D

 31 31  0  0  1  0  0  0  0  0999 V2000
  138.9940  137.6950  151.7830 C   0  0  0  0  0  0  0  0  0  0  0  0
  140.2700  137.4020  151.2950 C   0  0  0  0  0  3  0  0  0  0  0  0
  141.3880  137.5030  152.1270 C   0  0  0  0  0  3  0  0  0  0  0  0
  141.2580  137.9260  153.4560 C   0  0  0  0  0  0  0  0  0  0  0  0
  139.9830  138.2670  153.9430 C   0  0  0  0  0  0  0  0  0  0  0  0
  138.8630  138.1120  153.1140 C   0  0  0  0  0  3  0  0  0  0  0  0
  139.6650  138.7250  155.1980 O   0  0  0  0  0  0  0  0  0  0  0  0
  139.4760  137.7550  156.2220 C   0  0  0  0  0  1  0  0  0  0  0  0
  137.7930  137.5870  150.8860 C   0  0  0  0  0  2  0  0  0  0  0  0
  136.3100  135.7690  151.5450 C   0  0  0  0  0  0  0  0  0  0  0  0
  135.7170  136.4740  152.3760 O   0  0  0  0  0  0  0  0  0  0  0  0
  137.3350  136.2260  150.7650 N   0  0  0  0  0  0  0  0  0  0  0  0
  137.7640  135.6210  150.1150 H   0  0  0  0  0  0  0  0  0  0  0  0
  135.9490  134.3180  151.3290 C   0  0  0  0  0  2  0  0  0  0  0  0
  134.5740  133.9990  151.9090 C   0  0  0  0  0  2  0  0  0  0  0  0
  133.5200  133.7800  150.8220 C   0  0  0  0  0  2  0  0  0  0  0  0
  134.0500  132.8220  149.7550 C   0  0  0  0  0  2  0  0  0  0  0  0
  133.7140  133.3100  148.3480 C   0  0  0  0  0  2  0  0  0  0  0  0
  134.0740  134.7850  148.1790 C   0  0  0  0  0  2  0  0  0  0  0  0
  132.8660  136.9840  148.3680 C   0  0  0  0  0  1  0  0  0  0  0  0
  132.8660  135.6040  147.7320 C   0  0  0  0  0  2  0  0  0  0  0  0
  142.3070  138.0260  154.3230 O   0  0  0  0  0  0  0  0  0  0  0  0
  142.8090  139.3230  154.6530 C   0  0  0  0  0  2  0  0  0  0  0  0
  144.2420  139.4150  154.1070 C   0  0  1  0  0  3  0  0  0  0  0  0
  144.9600  140.4960  154.7210 O   0  0  0  0  0  0  0  0  0  0  0  0
  144.4540  141.3170  154.6220 H   0  0  0  0  0  0  0  0  0  0  0  0
  144.9860  138.0900  154.3540 C   0  0  0  0  0  2  0  0  0  0  0  0
  145.0200  137.2690  153.1420 N   0  0  0  0  0  4  0  0  0  0  0  0
  145.1050  138.1020  151.9540 C   0  0  0  0  0  1  0  0  0  0  0  0
  144.1700  136.7070  153.0950 H   0  0  0  0  0  0  0  0  0  0  0  0
  145.8430  136.6680  153.1790 H   0  0  0  0  0  0  0  0  0  0  0  0
  1  6  1  0  0  0  0
  2  1  2  0  0  0  0
  2  3  1  0  0  0  0
  3  4  2  0  0  0  0
  4  5  1  0  0  0  0
  4 22  1  0  0  0  0
  5  7  1  0  0  0  0
  6  5  2  0  0  0  0
  7  8  1  0  0  0  0
  9  1  1  0  0  0  0
 10 11  2  0  0  0  0
 12  9  1  0  0  0  0
 12 10  1  0  0  0  0
 13 12  1  0  0  0  0
 14 10  1  0  0  0  0
 14 15  1  0  0  0  0
 16 15  1  0  0  0  0
 17 16  1  0  0  0  0
 18 17  1  0  0  0  0
 19 18  1  0  0  0  0
 21 19  1  0  0  0  0
 21 20  1  0  0  0  0
 22 23  1  0  0  0  0
 24 27  1  1  0  0  0
 24 23  1  0  0  0  0
 24 25  1  0  0  0  0
 26 25  1  0  0  0  0
 28 31  1  0  0  0  0
 28 27  1  0  0  0  0
 29 28  1  0  0  0  0
 30 28  1  0  0  0  0
M  END
>  <MODEL>
4

>  <REMARK>
 VINA RESULT:    -6.200      3.731     10.196
 INTER + INTRA:         -13.290
 INTER:                 -11.683
 INTRA:                  -1.607
 UNBOUND:                -1.471
  Name = CHEMBL176469
  19 active torsions:
  status: ('A' for Active; 'I' for Inactive)
    1  A    between atoms: C_1  and  C_2
    2  A    between atoms: C_2  and  C_3
    3  A    between atoms: C_3  and  C_4
    4  A    between atoms: C_4  and  C_5
    5  A    between atoms: C_5  and  C_6
    6  A    between atoms: C_6  and  C_7
    7  A    between atoms: C_7  and  C_8
    8  A    between atoms: C_8  and  C_9
    9  A    between atoms: N_11  and  C_12
   10  A    between atoms: C_12  and  C_13
   11  A    between atoms: C_16  and  O_17
   12  A    between atoms: O_17  and  C_18
   13  A    between atoms: C_18  and  C_19
   14  A    between atoms: C_19  and  O_20
   15  A    between atoms: C_19  and  C_21
   16  A    between atoms: C_21  and  N_22
   17  A    between atoms: N_22  and  C_23
   18  A    between atoms: C_24  and  O_25
   19  A    between atoms: O_25  and  C_26
                            x       y       z     vdW  Elec       q    Type
                         _______ _______ _______ _____ _____    ______ ____

>  <TORSDO>
F 16

>  <SCORE>
-6.200

>  <RMSD_LB>
3.731

>  <RMSD_UB>
10.196

$$$$
CHEMBL176469
 OpenBabel10172500043D

 31 31  0  0  1  0  0  0  0  0999 V2000
  141.4470  137.4720  151.4800 C   0  0  0  0  0  0  0  0  0  0  0  0
  140.0570  137.6180  151.4400 C   0  0  0  0  0  3  0  0  0  0  0  0
  139.3640  138.1140  152.5470 C   0  0  0  0  0  3  0  0  0  0  0  0
  140.0410  138.4490  153.7270 C   0  0  0  0  0  0  0  0  0  0  0  0
  141.4330  138.2620  153.7920 C   0  0  0  0  0  0  0  0  0  0  0  0
  142.1240  137.8120  152.6580 C   0  0  0  0  0  3  0  0  0  0  0  0
  142.2570  138.5040  154.8640 O   0  0  0  0  0  0  0  0  0  0  0  0
  143.3730  139.3620  154.6530 C   0  0  0  0  0  1  0  0  0  0  0  0
  142.1900  136.9370  150.2890 C   0  0  0  0  0  2  0  0  0  0  0  0
  143.8400  138.4640  149.3480 C   0  0  0  0  0  0  0  0  0  0  0  0
  143.0090  138.9930  148.5950 O   0  0  0  0  0  0  0  0  0  0  0  0
  143.5330  137.4540  150.2180 N   0  0  0  0  0  0  0  0  0  0  0  0
  144.2340  137.0780  150.7990 H   0  0  0  0  0  0  0  0  0  0  0  0
  145.2880  138.8920  149.3620 C   0  0  0  0  0  2  0  0  0  0  0  0
  145.4250  140.3870  149.0870 C   0  0  0  0  0  2  0  0  0  0  0  0
  146.3270  141.0860  150.1050 C   0  0  0  0  0  2  0  0  0  0  0  0
  145.6330  142.3260  150.6660 C   0  0  0  0  0  2  0  0  0  0  0  0
  145.9080  142.4960  152.1580 C   0  0  0  0  0  2  0  0  0  0  0  0
  146.9380  141.4760  152.6440 C   0  0  0  0  0  2  0  0  0  0  0  0
  148.8170  141.8710  154.2710 C   0  0  0  0  0  1  0  0  0  0  0  0
  147.3140  141.7210  154.1040 C   0  0  0  0  0  2  0  0  0  0  0  0
  139.4240  138.9550  154.8330 O   0  0  0  0  0  0  0  0  0  0  0  0
  139.0010  138.0570  155.8610 C   0  0  0  0  0  2  0  0  0  0  0  0
  137.4650  138.0270  155.8420 C   0  0  1  0  0  3  0  0  0  0  0  0
  136.9310  139.2110  155.2310 O   0  0  0  0  0  0  0  0  0  0  0  0
  137.1660  139.9840  155.7660 H   0  0  0  0  0  0  0  0  0  0  0  0
  136.9720  136.7820  155.0830 C   0  0  0  0  0  2  0  0  0  0  0  0
  135.9630  136.0560  155.8560 N   0  0  0  0  0  4  0  0  0  0  0  0
  136.2580  136.1160  157.2790 C   0  0  0  0  0  1  0  0  0  0  0  0
  135.9520  135.0800  155.5590 H   0  0  0  0  0  0  0  0  0  0  0  0
  135.0530  136.4880  155.6930 H   0  0  0  0  0  0  0  0  0  0  0  0
  1  6  1  0  0  0  0
  2  1  2  0  0  0  0
  2  3  1  0  0  0  0
  3  4  2  0  0  0  0
  4  5  1  0  0  0  0
  4 22  1  0  0  0  0
  5  7  1  0  0  0  0
  6  5  2  0  0  0  0
  8  7  1  0  0  0  0
  9  1  1  0  0  0  0
 10 14  1  0  0  0  0
 10 12  1  0  0  0  0
 11 10  2  0  0  0  0
 12  9  1  0  0  0  0
 12 13  1  0  0  0  0
 15 14  1  0  0  0  0
 15 16  1  0  0  0  0
 16 17  1  0  0  0  0
 17 18  1  0  0  0  0
 18 19  1  0  0  0  0
 19 21  1  0  0  0  0
 21 20  1  0  0  0  0
 22 23  1  0  0  0  0
 24 27  1  6  0  0  0
 24 23  1  0  0  0  0
 25 26  1  0  0  0  0
 25 24  1  0  0  0  0
 27 28  1  0  0  0  0
 28 29  1  0  0  0  0
 30 28  1  0  0  0  0
 31 28  1  0  0  0  0
M  END
>  <MODEL>
5

>  <REMARK>
 VINA RESULT:    -6.132      2.029      3.348
 INTER + INTRA:         -13.160
 INTER:                 -11.908
 INTRA:                  -1.252
 UNBOUND:                -1.471
  Name = CHEMBL176469
  19 active torsions:
  status: ('A' for Active; 'I' for Inactive)
    1  A    between atoms: C_1  and  C_2
    2  A    between atoms: C_2  and  C_3
    3  A    between atoms: C_3  and  C_4
    4  A    between atoms: C_4  and  C_5
    5  A    between atoms: C_5  and  C_6
    6  A    between atoms: C_6  and  C_7
    7  A    between atoms: C_7  and  C_8
    8  A    between atoms: C_8  and  C_9
    9  A    between atoms: N_11  and  C_12
   10  A    between atoms: C_12  and  C_13
   11  A    between atoms: C_16  and  O_17
   12  A    between atoms: O_17  and  C_18
   13  A    between atoms: C_18  and  C_19
   14  A    between atoms: C_19  and  O_20
   15  A    between atoms: C_19  and  C_21
   16  A    between atoms: C_21  and  N_22
   17  A    between atoms: N_22  and  C_23
   18  A    between atoms: C_24  and  O_25
   19  A    between atoms: O_25  and  C_26
                            x       y       z     vdW  Elec       q    Type
                         _______ _______ _______ _____ _____    ______ ____

>  <TORSDO>
F 16

>  <SCORE>
-6.132

>  <RMSD_LB>
2.029

>  <RMSD_UB>
3.348

$$$$
CHEMBL176469
 OpenBabel10172500043D

 31 31  0  0  1  0  0  0  0  0999 V2000
  135.5580  135.8970  153.8320 C   0  0  0  0  0  0  0  0  0  0  0  0
  134.2580  135.3970  153.9510 C   0  0  0  0  0  3  0  0  0  0  0  0
  133.4980  135.1230  152.8110 C   0  0  0  0  0  3  0  0  0  0  0  0
  134.0090  135.3680  151.5300 C   0  0  0  0  0  0  0  0  0  0  0  0
  135.2990  135.9140  151.4030 C   0  0  0  0  0  0  0  0  0  0  0  0
  136.0710  136.1370  152.5510 C   0  0  0  0  0  3  0  0  0  0  0  0
  135.9520  136.2470  150.2410 O   0  0  0  0  0  0  0  0  0  0  0  0
  137.1390  137.0230  150.3560 C   0  0  0  0  0  1  0  0  0  0  0  0
  136.3740  136.1930  155.0580 C   0  0  0  0  0  2  0  0  0  0  0  0
  137.7800  138.1820  154.9800 C   0  0  0  0  0  0  0  0  0  0  0  0
  136.9050  138.8940  155.4950 O   0  0  0  0  0  0  0  0  0  0  0  0
  137.6150  136.8470  154.7320 N   0  0  0  0  0  0  0  0  0  0  0  0
  138.3500  136.3300  154.3280 H   0  0  0  0  0  0  0  0  0  0  0  0
  139.1210  138.7410  154.5670 C   0  0  0  0  0  2  0  0  0  0  0  0
  140.2490  138.1440  155.4050 C   0  0  0  0  0  2  0  0  0  0  0  0
  141.5980  138.1980  154.6870 C   0  0  0  0  0  2  0  0  0  0  0  0
  141.4070  138.6070  153.2270 C   0  0  0  0  0  2  0  0  0  0  0  0
  141.7930  137.4780  152.2740 C   0  0  0  0  0  2  0  0  0  0  0  0
  140.7180  137.2700  151.2080 C   0  0  0  0  0  2  0  0  0  0  0  0
  141.3630  138.0960  148.9200 C   0  0  0  0  0  1  0  0  0  0  0  0
  141.3360  136.9020  149.8610 C   0  0  0  0  0  2  0  0  0  0  0  0
  133.3240  135.1030  150.3800 O   0  0  0  0  0  0  0  0  0  0  0  0
  132.7470  133.8080  150.2030 C   0  0  0  0  0  2  0  0  0  0  0  0
  132.9210  133.4240  148.7260 C   0  0  1  0  0  3  0  0  0  0  0  0
  132.5460  134.5080  147.8620 O   0  0  0  0  0  0  0  0  0  0  0  0
  131.6980  134.8750  148.1540 H   0  0  0  0  0  0  0  0  0  0  0  0
  134.3820  133.0250  148.4540 C   0  0  0  0  0  2  0  0  0  0  0  0
  135.2090  134.2000  148.1720 N   0  0  0  0  0  4  0  0  0  0  0  0
  136.4230  133.8230  147.4670 C   0  0  0  0  0  1  0  0  0  0  0  0
  135.4610  134.6500  149.0520 H   0  0  0  0  0  0  0  0  0  0  0  0
  134.6750  134.8410  147.5840 H   0  0  0  0  0  0  0  0  0  0  0  0
  1  2  1  0  0  0  0
  1  9  1  0  0  0  0
  3  2  2  0  0  0  0
  4  3  1  0  0  0  0
  5  4  2  0  0  0  0
  5  6  1  0  0  0  0
  6  1  2  0  0  0  0
  7  8  1  0  0  0  0
  7  5  1  0  0  0  0
 10 11  2  0  0  0  0
 12 10  1  0  0  0  0
 12  9  1  0  0  0  0
 13 12  1  0  0  0  0
 14 10  1  0  0  0  0
 14 15  1  0  0  0  0
 16 15  1  0  0  0  0
 17 16  1  0  0  0  0
 18 17  1  0  0  0  0
 19 18  1  0  0  0  0
 20 21  1  0  0  0  0
 21 19  1  0  0  0  0
 22  4  1  0  0  0  0
 23 22  1  0  0  0  0
 24 27  1  1  0  0  0
 24 23  1  0  0  0  0
 25 26  1  0  0  0  0
 25 24  1  0  0  0  0
 28 27  1  0  0  0  0
 28 30  1  0  0  0  0
 29 28  1  0  0  0  0
 31 28  1  0  0  0  0
M  END
>  <MODEL>
6

>  <REMARK>
 VINA RESULT:    -6.095      4.995      8.346
 INTER + INTRA:         -13.090
 INTER:                 -11.248
 INTRA:                  -1.842
 UNBOUND:                -1.471
  Name = CHEMBL176469
  19 active torsions:
  status: ('A' for Active; 'I' for Inactive)
    1  A    between atoms: C_1  and  C_2
    2  A    between atoms: C_2  and  C_3
    3  A    between atoms: C_3  and  C_4
    4  A    between atoms: C_4  and  C_5
    5  A    between atoms: C_5  and  C_6
    6  A    between atoms: C_6  and  C_7
    7  A    between atoms: C_7  and  C_8
    8  A    between atoms: C_8  and  C_9
    9  A    between atoms: N_11  and  C_12
   10  A    between atoms: C_12  and  C_13
   11  A    between atoms: C_16  and  O_17
   12  A    between atoms: O_17  and  C_18
   13  A    between atoms: C_18  and  C_19
   14  A    between atoms: C_19  and  O_20
   15  A    between atoms: C_19  and  C_21
   16  A    between atoms: C_21  and  N_22
   17  A    between atoms: N_22  and  C_23
   18  A    between atoms: C_24  and  O_25
   19  A    between atoms: O_25  and  C_26
                            x       y       z     vdW  Elec       q    Type
                         _______ _______ _______ _____ _____    ______ ____

>  <TORSDO>
F 16

>  <SCORE>
-6.095

>  <RMSD_LB>
4.995

>  <RMSD_UB>
8.346

$$$$
CHEMBL176469
 OpenBabel10172500043D

 31 31  0  0  1  0  0  0  0  0999 V2000
  143.3900  137.3540  152.1380 C   0  0  0  0  0  0  0  0  0  0  0  0
  143.0250  137.7800  153.4180 C   0  0  0  0  0  3  0  0  0  0  0  0
  141.6800  137.9740  153.7430 C   0  0  0  0  0  3  0  0  0  0  0  0
  140.6740  137.7730  152.7890 C   0  0  0  0  0  0  0  0  0  0  0  0
  141.0360  137.3880  151.4860 C   0  0  0  0  0  0  0  0  0  0  0  0
  142.3840  137.1480  151.1850 C   0  0  0  0  0  3  0  0  0  0  0  0
  140.1990  137.1740  150.4180 O   0  0  0  0  0  0  0  0  0  0  0  0
  139.8510  138.3010  149.6220 C   0  0  0  0  0  1  0  0  0  0  0  0
  144.8370  137.1480  151.7890 C   0  0  0  0  0  2  0  0  0  0  0  0
  146.5000  137.5870  153.5160 C   0  0  0  0  0  0  0  0  0  0  0  0
  146.5490  136.3950  153.8560 O   0  0  0  0  0  0  0  0  0  0  0  0
  145.6960  138.0510  152.5110 N   0  0  0  0  0  0  0  0  0  0  0  0
  145.7050  139.0080  152.2800 H   0  0  0  0  0  0  0  0  0  0  0  0
  147.3290  138.6460  154.2020 C   0  0  0  0  0  2  0  0  0  0  0  0
  146.7070  140.0290  154.0340 C   0  0  0  0  0  2  0  0  0  0  0  0
  147.7340  141.1520  154.1820 C   0  0  0  0  0  2  0  0  0  0  0  0
  147.5450  142.1930  153.0790 C   0  0  0  0  0  2  0  0  0  0  0  0
  147.2170  141.5370  151.7400 C   0  0  0  0  0  2  0  0  0  0  0  0
  146.0390  142.2360  151.0620 C   0  0  0  0  0  2  0  0  0  0  0  0
  145.2190  140.2840  149.7030 C   0  0  0  0  0  1  0  0  0  0  0  0
  144.8870  141.2660  150.8140 C   0  0  0  0  0  2  0  0  0  0  0  0
  139.3440  137.9260  153.0510 O   0  0  0  0  0  0  0  0  0  0  0  0
  138.9260  138.9900  153.9080 C   0  0  0  0  0  2  0  0  0  0  0  0
  137.9960  138.3880  154.9710 C   0  0  1  0  0  3  0  0  0  0  0  0
  136.9420  139.3010  155.3130 O   0  0  0  0  0  0  0  0  0  0  0  0
  137.1820  140.1940  155.0230 H   0  0  0  0  0  0  0  0  0  0  0  0
  137.3940  137.0680  154.4590 C   0  0  0  0  0  2  0  0  0  0  0  0
  136.6080  136.4050  155.5010 N   0  0  0  0  0  4  0  0  0  0  0  0
  137.4670  135.9270  156.5720 C   0  0  0  0  0  1  0  0  0  0  0  0
  136.1120  135.6130  155.0930 H   0  0  0  0  0  0  0  0  0  0  0  0
  135.9460  137.0780  155.8880 H   0  0  0  0  0  0  0  0  0  0  0  0
  1  2  1  0  0  0  0
  2  3  2  0  0  0  0
  4 22  1  0  0  0  0
  4  3  1  0  0  0  0
  5  4  2  0  0  0  0
  6  5  1  0  0  0  0
  6  1  2  0  0  0  0
  7  5  1  0  0  0  0
  8  7  1  0  0  0  0
  9  1  1  0  0  0  0
  9 12  1  0  0  0  0
 10 11  2  0  0  0  0
 10 14  1  0  0  0  0
 12 10  1  0  0  0  0
 13 12  1  0  0  0  0
 15 16  1  0  0  0  0
 15 14  1  0  0  0  0
 17 16  1  0  0  0  0
 18 17  1  0  0  0  0
 19 18  1  0  0  0  0
 20 21  1  0  0  0  0
 21 19  1  0  0  0  0
 22 23  1  0  0  0  0
 24 23  1  6  0  0  0
 24 25  1  0  0  0  0
 26 25  1  0  0  0  0
 27 24  1  0  0  0  0
 27 28  1  0  0  0  0
 28 31  1  0  0  0  0
 28 29  1  0  0  0  0
 30 28  1  0  0  0  0
M  END
>  <MODEL>
7

>  <REMARK>
 VINA RESULT:    -6.002      1.380      2.365
 INTER + INTRA:         -12.912
 INTER:                 -11.273
 INTRA:                  -1.640
 UNBOUND:                -1.471
  Name = CHEMBL176469
  19 active torsions:
  status: ('A' for Active; 'I' for Inactive)
    1  A    between atoms: C_1  and  C_2
    2  A    between atoms: C_2  and  C_3
    3  A    between atoms: C_3  and  C_4
    4  A    between atoms: C_4  and  C_5
    5  A    between atoms: C_5  and  C_6
    6  A    between atoms: C_6  and  C_7
    7  A    between atoms: C_7  and  C_8
    8  A    between atoms: C_8  and  C_9
    9  A    between atoms: N_11  and  C_12
   10  A    between atoms: C_12  and  C_13
   11  A    between atoms: C_16  and  O_17
   12  A    between atoms: O_17  and  C_18
   13  A    between atoms: C_18  and  C_19
   14  A    between atoms: C_19  and  O_20
   15  A    between atoms: C_19  and  C_21
   16  A    between atoms: C_21  and  N_22
   17  A    between atoms: N_22  and  C_23
   18  A    between atoms: C_24  and  O_25
   19  A    between atoms: O_25  and  C_26
                            x       y       z     vdW  Elec       q    Type
                         _______ _______ _______ _____ _____    ______ ____

>  <TORSDO>
F 16

>  <SCORE>
-6.002

>  <RMSD_LB>
1.380

>  <RMSD_UB>
2.365

$$$$
CHEMBL176469
 OpenBabel10172500043D

 31 31  0  0  1  0  0  0  0  0999 V2000
  138.8270  138.1550  153.8360 C   0  0  0  0  0  0  0  0  0  0  0  0
  138.9160  137.8340  152.4790 C   0  0  0  0  0  3  0  0  0  0  0  0
  137.9000  137.1060  151.8550 C   0  0  0  0  0  3  0  0  0  0  0  0
  136.7870  136.6600  152.5800 C   0  0  0  0  0  0  0  0  0  0  0  0
  136.7120  136.9390  153.9560 C   0  0  0  0  0  0  0  0  0  0  0  0
  137.7120  137.7130  154.5600 C   0  0  0  0  0  3  0  0  0  0  0  0
  135.7210  136.5620  154.8300 O   0  0  0  0  0  0  0  0  0  0  0  0
  136.0280  135.5320  155.7630 C   0  0  0  0  0  1  0  0  0  0  0  0
  139.9220  138.9360  154.5060 C   0  0  0  0  0  2  0  0  0  0  0  0
  142.3310  139.2640  154.3300 C   0  0  0  0  0  0  0  0  0  0  0  0
  142.4280  139.6280  155.5110 O   0  0  0  0  0  0  0  0  0  0  0  0
  141.1470  138.9000  153.7490 N   0  0  0  0  0  0  0  0  0  0  0  0
  141.1320  138.6110  152.8070 H   0  0  0  0  0  0  0  0  0  0  0  0
  143.5300  139.2000  153.4140 C   0  0  0  0  0  2  0  0  0  0  0  0
  144.8210  139.0150  154.2080 C   0  0  0  0  0  2  0  0  0  0  0  0
  146.0260  139.6520  153.5150 C   0  0  0  0  0  2  0  0  0  0  0  0
  146.4290  140.9410  154.2290 C   0  0  0  0  0  2  0  0  0  0  0  0
  146.4330  142.1330  153.2750 C   0  0  0  0  0  2  0  0  0  0  0  0
  146.9320  141.7240  151.8900 C   0  0  0  0  0  2  0  0  0  0  0  0
  146.7500  142.9080  149.6770 C   0  0  0  0  0  1  0  0  0  0  0  0
  145.9880  142.2120  150.7940 C   0  0  0  0  0  2  0  0  0  0  0  0
  135.7540  135.9630  152.0240 O   0  0  0  0  0  0  0  0  0  0  0  0
  135.7550  134.5370  152.1140 C   0  0  0  0  0  2  0  0  0  0  0  0
  134.2910  134.0790  152.1920 C   0  0  1  0  0  3  0  0  0  0  0  0
  133.9230  133.7500  153.5410 O   0  0  0  0  0  0  0  0  0  0  0  0
  134.5100  134.2140  154.1580 H   0  0  0  0  0  0  0  0  0  0  0  0
  133.3640  135.1840  151.6570 C   0  0  0  0  0  2  0  0  0  0  0  0
  133.3370  135.1890  150.1920 N   0  0  0  0  0  4  0  0  0  0  0  0
  132.8310  133.9250  149.6800 C   0  0  0  0  0  1  0  0  0  0  0  0
  134.2820  135.3370  149.8410 H   0  0  0  0  0  0  0  0  0  0  0  0
  132.7190  135.9380  149.8800 H   0  0  0  0  0  0  0  0  0  0  0  0
  1  9  1  0  0  0  0
  1  6  1  0  0  0  0
  2  1  2  0  0  0  0
  3  2  1  0  0  0  0
  3  4  2  0  0  0  0
  4  5  1  0  0  0  0
  5  6  2  0  0  0  0
  5  7  1  0  0  0  0
  7  8  1  0  0  0  0
 10 11  2  0  0  0  0
 12 10  1  0  0  0  0
 12  9  1  0  0  0  0
 13 12  1  0  0  0  0
 14 15  1  0  0  0  0
 14 10  1  0  0  0  0
 16 15  1  0  0  0  0
 16 17  1  0  0  0  0
 18 17  1  0  0  0  0
 19 18  1  0  0  0  0
 20 21  1  0  0  0  0
 21 19  1  0  0  0  0
 22 23  1  0  0  0  0
 22  4  1  0  0  0  0
 23 24  1  0  0  0  0
 24 27  1  1  0  0  0
 24 25  1  0  0  0  0
 25 26  1  0  0  0  0
 28 27  1  0  0  0  0
 29 28  1  0  0  0  0
 30 28  1  0  0  0  0
 31 28  1  0  0  0  0
M  END
>  <MODEL>
8

>  <REMARK>
 VINA RESULT:    -6.001      2.942      4.917
 INTER + INTRA:         -12.910
 INTER:                 -11.583
 INTRA:                  -1.327
 UNBOUND:                -1.471
  Name = CHEMBL176469
  19 active torsions:
  status: ('A' for Active; 'I' for Inactive)
    1  A    between atoms: C_1  and  C_2
    2  A    between atoms: C_2  and  C_3
    3  A    between atoms: C_3  and  C_4
    4  A    between atoms: C_4  and  C_5
    5  A    between atoms: C_5  and  C_6
    6  A    between atoms: C_6  and  C_7
    7  A    between atoms: C_7  and  C_8
    8  A    between atoms: C_8  and  C_9
    9  A    between atoms: N_11  and  C_12
   10  A    between atoms: C_12  and  C_13
   11  A    between atoms: C_16  and  O_17
   12  A    between atoms: O_17  and  C_18
   13  A    between atoms: C_18  and  C_19
   14  A    between atoms: C_19  and  O_20
   15  A    between atoms: C_19  and  C_21
   16  A    between atoms: C_21  and  N_22
   17  A    between atoms: N_22  and  C_23
   18  A    between atoms: C_24  and  O_25
   19  A    between atoms: O_25  and  C_26
                            x       y       z     vdW  Elec       q    Type
                         _______ _______ _______ _____ _____    ______ ____

>  <TORSDO>
F 16

>  <SCORE>
-6.001

>  <RMSD_LB>
2.942

>  <RMSD_UB>
4.917

$$$$
CHEMBL176469
 OpenBabel10172500043D

 31 31  0  0  1  0  0  0  0  0999 V2000
  143.7350  139.5390  150.8660 C   0  0  0  0  0  0  0  0  0  0  0  0
  144.2920  140.5500  150.0770 C   0  0  0  0  0  3  0  0  0  0  0  0
  145.2520  141.4160  150.6070 C   0  0  0  0  0  3  0  0  0  0  0  0
  145.6550  141.3090  151.9450 C   0  0  0  0  0  0  0  0  0  0  0  0
  145.0660  140.3250  152.7590 C   0  0  0  0  0  0  0  0  0  0  0  0
  144.1420  139.4300  152.2020 C   0  0  0  0  0  3  0  0  0  0  0  0
  145.3090  140.0900  154.0900 O   0  0  0  0  0  0  0  0  0  0  0  0
  144.2390  139.5690  154.8700 C   0  0  0  0  0  1  0  0  0  0  0  0
  142.7020  138.6100  150.2940 C   0  0  0  0  0  2  0  0  0  0  0  0
  140.6860  138.3540  151.6390 C   0  0  0  0  0  0  0  0  0  0  0  0
  141.1630  137.4070  152.2820 O   0  0  0  0  0  0  0  0  0  0  0  0
  141.3650  139.0110  150.6500 N   0  0  0  0  0  0  0  0  0  0  0  0
  140.9370  139.7620  150.1790 H   0  0  0  0  0  0  0  0  0  0  0  0
  139.2870  138.8630  151.8910 C   0  0  0  0  0  2  0  0  0  0  0  0
  138.3810  137.7520  152.4140 C   0  0  0  0  0  2  0  0  0  0  0  0
  137.6590  137.0100  151.2880 C   0  0  0  0  0  2  0  0  0  0  0  0
  136.4850  136.2090  151.8480 C   0  0  0  0  0  2  0  0  0  0  0  0
  136.0860  135.0700  150.9120 C   0  0  0  0  0  2  0  0  0  0  0  0
  134.6550  134.6110  151.1860 C   0  0  0  0  0  2  0  0  0  0  0  0
  132.5710  133.6340  150.1690 C   0  0  0  0  0  1  0  0  0  0  0  0
  133.9250  134.2650  149.8910 C   0  0  0  0  0  2  0  0  0  0  0  0
  146.6000  142.1110  152.5150 O   0  0  0  0  0  0  0  0  0  0  0  0
  147.8620  142.2620  151.8630 C   0  0  0  0  0  2  0  0  0  0  0  0
  148.9340  141.6710  152.7920 C   0  0  1  0  0  3  0  0  0  0  0  0
  150.2110  142.2870  152.5660 O   0  0  0  0  0  0  0  0  0  0  0  0
  150.6820  141.8050  151.8690 H   0  0  0  0  0  0  0  0  0  0  0  0
  148.5190  141.8590  154.2620 C   0  0  0  0  0  2  0  0  0  0  0  0
  148.0260  140.6060  154.8380 N   0  0  0  0  0  4  0  0  0  0  0  0
  148.5930  139.4600  154.1460 C   0  0  0  0  0  1  0  0  0  0  0  0
  147.0100  140.5770  154.7550 H   0  0  0  0  0  0  0  0  0  0  0  0
  148.3050  140.5660  155.8190 H   0  0  0  0  0  0  0  0  0  0  0  0
  1  6  1  0  0  0  0
  2  3  1  0  0  0  0
  2  1  2  0  0  0  0
  3  4  2  0  0  0  0
  4 22  1  0  0  0  0
  4  5  1  0  0  0  0
  5  7  1  0  0  0  0
  6  5  2  0  0  0  0
  7  8  1  0  0  0  0
  9 12  1  0  0  0  0
  9  1  1  0  0  0  0
 10 14  1  0  0  0  0
 10 11  2  0  0  0  0
 12 10  1  0  0  0  0
 13 12  1  0  0  0  0
 14 15  1  0  0  0  0
 16 17  1  0  0  0  0
 16 15  1  0  0  0  0
 18 19  1  0  0  0  0
 18 17  1  0  0  0  0
 21 20  1  0  0  0  0
 21 19  1  0  0  0  0
 23 22  1  0  0  0  0
 24 23  1  6  0  0  0
 24 27  1  0  0  0  0
 25 24  1  0  0  0  0
 26 25  1  0  0  0  0
 27 28  1  0  0  0  0
 28 31  1  0  0  0  0
 29 28  1  0  0  0  0
 30 28  1  0  0  0  0
M  END
>  <MODEL>
9

>  <REMARK>
 VINA RESULT:    -5.949      3.239      9.852
 INTER + INTRA:         -12.811
 INTER:                 -11.340
 INTRA:                  -1.471
 UNBOUND:                -1.471
  Name = CHEMBL176469
  19 active torsions:
  status: ('A' for Active; 'I' for Inactive)
    1  A    between atoms: C_1  and  C_2
    2  A    between atoms: C_2  and  C_3
    3  A    between atoms: C_3  and  C_4
    4  A    between atoms: C_4  and  C_5
    5  A    between atoms: C_5  and  C_6
    6  A    between atoms: C_6  and  C_7
    7  A    between atoms: C_7  and  C_8
    8  A    between atoms: C_8  and  C_9
    9  A    between atoms: N_11  and  C_12
   10  A    between atoms: C_12  and  C_13
   11  A    between atoms: C_16  and  O_17
   12  A    between atoms: O_17  and  C_18
   13  A    between atoms: C_18  and  C_19
   14  A    between atoms: C_19  and  O_20
   15  A    between atoms: C_19  and  C_21
   16  A    between atoms: C_21  and  N_22
   17  A    between atoms: N_22  and  C_23
   18  A    between atoms: C_24  and  O_25
   19  A    between atoms: O_25  and  C_26
                            x       y       z     vdW  Elec       q    Type
                         _______ _______ _______ _____ _____    ______ ____

>  <TORSDO>
F 16

>  <SCORE>
-5.949

>  <RMSD_LB>
3.239

>  <RMSD_UB>
9.852

$$$$
