CHEMBL86708
 OpenBabel10172500013D

 24 24  0  0  0  0  0  0  0  0999 V2000
  133.9320  135.2830  152.4440 C   0  0  0  0  0  0  0  0  0  0  0  0
  133.2750  136.0490  151.7470 O   0  0  0  0  0  0  0  0  0  0  0  0
  134.0680  135.5350  153.7820 N   0  0  0  0  0  0  0  0  0  0  0  0
  133.5640  136.3040  154.1340 H   0  0  0  0  0  0  0  0  0  0  0  0
  134.6100  134.0360  151.9150 C   0  0  0  0  0  2  0  0  0  0  0  0
  136.0380  134.2840  151.4630 C   0  0  0  0  0  2  0  0  0  0  0  0
  136.1410  135.6420  150.7750 C   0  0  0  0  0  2  0  0  0  0  0  0
  136.0210  135.4840  149.2650 C   0  0  0  0  0  2  0  0  0  0  0  0
  134.8850  136.3370  148.7140 C   0  0  0  0  0  2  0  0  0  0  0  0
  134.0160  135.5160  147.7670 C   0  0  0  0  0  2  0  0  0  0  0  0
  133.1590  134.5220  148.5430 C   0  0  0  0  0  2  0  0  0  0  0  0
  134.1720  132.2320  148.6860 C   0  0  0  0  0  1  0  0  0  0  0  0
  133.2260  133.1340  147.9130 C   0  0  0  0  0  2  0  0  0  0  0  0
  134.8700  134.7990  154.7400 C   0  0  0  0  0  2  0  0  0  0  0  0
  135.6490  135.7180  155.6430 C   0  0  0  0  0  0  0  0  0  0  0  0
  135.8020  135.4070  156.9980 C   0  0  0  0  0  3  0  0  0  0  0  0
  136.5100  136.2620  157.8420 C   0  0  0  0  0  3  0  0  0  0  0  0
  137.0710  137.4410  157.3460 C   0  0  0  0  0  0  0  0  0  0  0  0
  136.9320  137.7800  155.9960 C   0  0  0  0  0  0  0  0  0  0  0  0
  136.2260  136.9040  155.1550 C   0  0  0  0  0  3  0  0  0  0  0  0
  137.7560  138.2420  158.2190 O   0  0  0  0  0  0  0  0  0  0  0  0
  137.9010  137.9570  159.1000 H   0  0  0  0  0  0  0  0  0  0  0  0
  137.4000  138.8900  155.3460 O   0  0  0  0  0  0  0  0  0  0  0  0
  138.4960  138.7240  154.4540 C   0  0  0  0  0  1  0  0  0  0  0  0
  1  3  1  0  0  0  0
  2  1  2  0  0  0  0
  3  4  1  0  0  0  0
  3 14  1  0  0  0  0
  5  1  1  0  0  0  0
  6  5  1  0  0  0  0
  7  6  1  0  0  0  0
  8  7  1  0  0  0  0
  9  8  1  0  0  0  0
 10 11  1  0  0  0  0
 10  9  1  0  0  0  0
 13 11  1  0  0  0  0
 13 12  1  0  0  0  0
 14 15  1  0  0  0  0
 15 16  1  0  0  0  0
 16 17  2  0  0  0  0
 18 17  1  0  0  0  0
 18 21  1  0  0  0  0
 19 18  2  0  0  0  0
 20 15  2  0  0  0  0
 20 19  1  0  0  0  0
 21 22  1  0  0  0  0
 23 19  1  0  0  0  0
 24 23  1  0  0  0  0
M  END
>  <MODEL>
1

>  <REMARK>
 VINA RESULT:    -6.366      0.000      0.000
 INTER + INTRA:         -11.450
 INTER:                 -10.096
 INTRA:                  -1.353
 UNBOUND:                -0.804
  Name = CHEMBL86708
  14 active torsions:
  status: ('A' for Active; 'I' for Inactive)
    1  A    between atoms: C_1  and  C_2
    2  A    between atoms: C_2  and  C_3
    3  A    between atoms: C_3  and  C_4
    4  A    between atoms: C_4  and  C_5
    5  A    between atoms: C_5  and  C_6
    6  A    between atoms: C_6  and  C_7
    7  A    between atoms: C_7  and  C_8
    8  A    between atoms: C_8  and  C_9
    9  A    between atoms: C_9  and  C_10
   10  A    between atoms: N_12  and  C_13
   11  A    between atoms: C_13  and  C_14
   12  A    between atoms: C_17  and  O_18
   13  A    between atoms: C_19  and  O_20
   14  A    between atoms: O_20  and  C_21
                            x       y       z     vdW  Elec       q    Type
                         _______ _______ _______ _____ _____    ______ ____

>  <TORSDO>
F 12

>  <SCORE>
-6.366

>  <RMSD_LB>
0.000

>  <RMSD_UB>
0.000

$$$$
CHEMBL86708
 OpenBabel10172500013D

 24 24  0  0  0  0  0  0  0  0999 V2000
  134.3560  135.4350  152.8540 C   0  0  0  0  0  0  0  0  0  0  0  0
  133.9930  136.4400  153.4560 O   0  0  0  0  0  0  0  0  0  0  0  0
  133.4220  134.6210  152.2730 N   0  0  0  0  0  0  0  0  0  0  0  0
  132.4880  134.9300  152.3160 H   0  0  0  0  0  0  0  0  0  0  0  0
  135.8060  135.0280  152.6930 C   0  0  0  0  0  2  0  0  0  0  0  0
  136.4680  135.6580  151.4810 C   0  0  0  0  0  2  0  0  0  0  0  0
  137.2280  136.9150  151.8950 C   0  0  0  0  0  2  0  0  0  0  0  0
  138.3750  137.1850  150.9310 C   0  0  0  0  0  2  0  0  0  0  0  0
  139.6140  137.6650  151.6750 C   0  0  0  0  0  2  0  0  0  0  0  0
  139.2150  138.4190  152.9400 C   0  0  0  0  0  2  0  0  0  0  0  0
  140.1700  138.1000  154.0850 C   0  0  0  0  0  2  0  0  0  0  0  0
  140.2810  137.4320  156.5000 C   0  0  0  0  0  1  0  0  0  0  0  0
  139.4350  138.0880  155.4230 C   0  0  0  0  0  2  0  0  0  0  0  0
  133.6500  133.3570  151.6010 C   0  0  0  0  0  2  0  0  0  0  0  0
  133.6120  133.5030  150.1020 C   0  0  0  0  0  0  0  0  0  0  0  0
  134.1690  132.5150  149.2860 C   0  0  0  0  0  3  0  0  0  0  0  0
  134.1480  132.6510  147.8980 C   0  0  0  0  0  3  0  0  0  0  0  0
  133.5760  133.7800  147.3070 C   0  0  0  0  0  0  0  0  0  0  0  0
  133.0140  134.7870  148.0990 C   0  0  0  0  0  0  0  0  0  0  0  0
  133.0320  134.6310  149.4940 C   0  0  0  0  0  3  0  0  0  0  0  0
  133.5830  133.8620  145.9420 O   0  0  0  0  0  0  0  0  0  0  0  0
  134.1240  134.4960  145.5130 H   0  0  0  0  0  0  0  0  0  0  0  0
  132.4270  135.9560  147.6960 O   0  0  0  0  0  0  0  0  0  0  0  0
  133.2670  137.0860  147.4930 C   0  0  0  0  0  1  0  0  0  0  0  0
  1  2  2  0  0  0  0
  3  4  1  0  0  0  0
  3  1  1  0  0  0  0
  5  1  1  0  0  0  0
  6  7  1  0  0  0  0
  6  5  1  0  0  0  0
  8  9  1  0  0  0  0
  8  7  1  0  0  0  0
  9 10  1  0  0  0  0
 10 11  1  0  0  0  0
 11 13  1  0  0  0  0
 13 12  1  0  0  0  0
 14  3  1  0  0  0  0
 15 14  1  0  0  0  0
 16 15  2  0  0  0  0
 17 16  1  0  0  0  0
 18 17  2  0  0  0  0
 18 19  1  0  0  0  0
 19 20  2  0  0  0  0
 20 15  1  0  0  0  0
 21 18  1  0  0  0  0
 22 21  1  0  0  0  0
 23 19  1  0  0  0  0
 24 23  1  0  0  0  0
M  END
>  <MODEL>
2

>  <REMARK>
 VINA RESULT:    -6.305      2.729      7.746
 INTER + INTRA:         -11.348
 INTER:                 -10.267
 INTRA:                  -1.081
 UNBOUND:                -0.804
  Name = CHEMBL86708
  14 active torsions:
  status: ('A' for Active; 'I' for Inactive)
    1  A    between atoms: C_1  and  C_2
    2  A    between atoms: C_2  and  C_3
    3  A    between atoms: C_3  and  C_4
    4  A    between atoms: C_4  and  C_5
    5  A    between atoms: C_5  and  C_6
    6  A    between atoms: C_6  and  C_7
    7  A    between atoms: C_7  and  C_8
    8  A    between atoms: C_8  and  C_9
    9  A    between atoms: C_9  and  C_10
   10  A    between atoms: N_12  and  C_13
   11  A    between atoms: C_13  and  C_14
   12  A    between atoms: C_17  and  O_18
   13  A    between atoms: C_19  and  O_20
   14  A    between atoms: O_20  and  C_21
                            x       y       z     vdW  Elec       q    Type
                         _______ _______ _______ _____ _____    ______ ____

>  <TORSDO>
F 12

>  <SCORE>
-6.305

>  <RMSD_LB>
2.729

>  <RMSD_UB>
7.746

$$$$
CHEMBL86708
 OpenBabel10172500013D

 24 24  0  0  0  0  0  0  0  0999 V2000
  146.0350  138.5470  154.8150 C   0  0  0  0  0  0  0  0  0  0  0  0
  146.5680  138.6340  155.9170 O   0  0  0  0  0  0  0  0  0  0  0  0
  145.3090  137.4300  154.5020 N   0  0  0  0  0  0  0  0  0  0  0  0
  145.1980  136.7670  155.2220 H   0  0  0  0  0  0  0  0  0  0  0  0
  146.1160  139.6240  153.7540 C   0  0  0  0  0  2  0  0  0  0  0  0
  146.9640  140.8100  154.1760 C   0  0  0  0  0  2  0  0  0  0  0  0
  148.4200  140.5800  153.7810 C   0  0  0  0  0  2  0  0  0  0  0  0
  149.1660  141.9060  153.7030 C   0  0  0  0  0  2  0  0  0  0  0  0
  149.3970  142.3190  152.2560 C   0  0  0  0  0  2  0  0  0  0  0  0
  148.4240  141.5920  151.3330 C   0  0  0  0  0  2  0  0  0  0  0  0
  147.7490  142.5690  150.3790 C   0  0  0  0  0  2  0  0  0  0  0  0
  145.5150  142.5780  151.5220 C   0  0  0  0  0  1  0  0  0  0  0  0
  146.2610  142.2570  150.2380 C   0  0  0  0  0  2  0  0  0  0  0  0
  144.6870  137.1110  153.2330 C   0  0  0  0  0  2  0  0  0  0  0  0
  143.3060  137.7040  153.1210 C   0  0  0  0  0  0  0  0  0  0  0  0
  142.7650  137.9900  151.8640 C   0  0  0  0  0  3  0  0  0  0  0  0
  141.4940  138.5520  151.7540 C   0  0  0  0  0  3  0  0  0  0  0  0
  140.7470  138.8400  152.8990 C   0  0  0  0  0  0  0  0  0  0  0  0
  141.2640  138.5680  154.1700 C   0  0  0  0  0  0  0  0  0  0  0  0
  142.5410  137.9910  154.2650 C   0  0  0  0  0  3  0  0  0  0  0  0
  139.5060  139.3900  152.7330 O   0  0  0  0  0  0  0  0  0  0  0  0
  139.3700  140.3010  152.9070 H   0  0  0  0  0  0  0  0  0  0  0  0
  140.6840  138.7930  155.3890 O   0  0  0  0  0  0  0  0  0  0  0  0
  140.5240  137.6830  156.2650 C   0  0  0  0  0  1  0  0  0  0  0  0
  1  2  2  0  0  0  0
  3  1  1  0  0  0  0
  3  4  1  0  0  0  0
  5  6  1  0  0  0  0
  5  1  1  0  0  0  0
  7  6  1  0  0  0  0
  8  7  1  0  0  0  0
  9  8  1  0  0  0  0
 10  9  1  0  0  0  0
 11 10  1  0  0  0  0
 13 11  1  0  0  0  0
 13 12  1  0  0  0  0
 14  3  1  0  0  0  0
 15 14  1  0  0  0  0
 15 20  1  0  0  0  0
 16 15  2  0  0  0  0
 17 16  1  0  0  0  0
 17 18  2  0  0  0  0
 18 19  1  0  0  0  0
 19 20  2  0  0  0  0
 19 23  1  0  0  0  0
 21 18  1  0  0  0  0
 21 22  1  0  0  0  0
 23 24  1  0  0  0  0
M  END
>  <MODEL>
3

>  <REMARK>
 VINA RESULT:    -6.262      7.803     11.722
 INTER + INTRA:         -11.275
 INTER:                 -10.234
 INTRA:                  -1.042
 UNBOUND:                -0.804
  Name = CHEMBL86708
  14 active torsions:
  status: ('A' for Active; 'I' for Inactive)
    1  A    between atoms: C_1  and  C_2
    2  A    between atoms: C_2  and  C_3
    3  A    between atoms: C_3  and  C_4
    4  A    between atoms: C_4  and  C_5
    5  A    between atoms: C_5  and  C_6
    6  A    between atoms: C_6  and  C_7
    7  A    between atoms: C_7  and  C_8
    8  A    between atoms: C_8  and  C_9
    9  A    between atoms: C_9  and  C_10
   10  A    between atoms: N_12  and  C_13
   11  A    between atoms: C_13  and  C_14
   12  A    between atoms: C_17  and  O_18
   13  A    between atoms: C_19  and  O_20
   14  A    between atoms: O_20  and  C_21
                            x       y       z     vdW  Elec       q    Type
                         _______ _______ _______ _____ _____    ______ ____

>  <TORSDO>
F 12

>  <SCORE>
-6.262

>  <RMSD_LB>
7.803

>  <RMSD_UB>
11.722

$$$$
CHEMBL86708
 OpenBabel10172500013D

 24 24  0  0  0  0  0  0  0  0999 V2000
  144.9110  137.5140  150.2300 C   0  0  0  0  0  0  0  0  0  0  0  0
  145.0400  136.9310  149.1580 O   0  0  0  0  0  0  0  0  0  0  0  0
  144.2170  136.9150  151.2450 N   0  0  0  0  0  0  0  0  0  0  0  0
  143.9050  135.9960  151.0770 H   0  0  0  0  0  0  0  0  0  0  0  0
  145.4940  138.8810  150.5200 C   0  0  0  0  0  2  0  0  0  0  0  0
  144.6340  140.0160  149.9920 C   0  0  0  0  0  2  0  0  0  0  0  0
  144.4420  141.0750  151.0740 C   0  0  0  0  0  2  0  0  0  0  0  0
  145.4230  142.2220  150.8760 C   0  0  0  0  0  2  0  0  0  0  0  0
  146.4080  142.3070  152.0350 C   0  0  0  0  0  2  0  0  0  0  0  0
  147.8410  142.1960  151.5230 C   0  0  0  0  0  2  0  0  0  0  0  0
  148.7310  141.5070  152.5510 C   0  0  0  0  0  2  0  0  0  0  0  0
  148.3300  139.8370  154.3800 C   0  0  0  0  0  1  0  0  0  0  0  0
  148.1970  140.1180  152.8930 C   0  0  0  0  0  2  0  0  0  0  0  0
  143.8880  137.4780  152.5400 C   0  0  0  0  0  2  0  0  0  0  0  0
  142.4030  137.6570  152.7140 C   0  0  0  0  0  0  0  0  0  0  0  0
  141.5360  137.4110  151.6450 C   0  0  0  0  0  3  0  0  0  0  0  0
  140.1610  137.5890  151.7950 C   0  0  0  0  0  3  0  0  0  0  0  0
  139.6330  138.0190  153.0150 C   0  0  0  0  0  0  0  0  0  0  0  0
  140.4760  138.2770  154.1010 C   0  0  0  0  0  0  0  0  0  0  0  0
  141.8580  138.0820  153.9380 C   0  0  0  0  0  3  0  0  0  0  0  0
  138.2780  138.1760  153.1070 O   0  0  0  0  0  0  0  0  0  0  0  0
  137.9210  138.9330  153.5300 H   0  0  0  0  0  0  0  0  0  0  0  0
  140.1390  138.7120  155.3550 O   0  0  0  0  0  0  0  0  0  0  0  0
  139.6880  137.7440  156.2950 C   0  0  0  0  0  1  0  0  0  0  0  0
  1  5  1  0  0  0  0
  1  3  1  0  0  0  0
  2  1  2  0  0  0  0
  3 14  1  0  0  0  0
  4  3  1  0  0  0  0
  6  5  1  0  0  0  0
  6  7  1  0  0  0  0
  8  7  1  0  0  0  0
  8  9  1  0  0  0  0
 10  9  1  0  0  0  0
 10 11  1  0  0  0  0
 11 13  1  0  0  0  0
 13 12  1  0  0  0  0
 14 15  1  0  0  0  0
 15 20  1  0  0  0  0
 16 17  1  0  0  0  0
 16 15  2  0  0  0  0
 17 18  2  0  0  0  0
 18 21  1  0  0  0  0
 18 19  1  0  0  0  0
 19 23  1  0  0  0  0
 20 19  2  0  0  0  0
 21 22  1  0  0  0  0
 23 24  1  0  0  0  0
M  END
>  <MODEL>
4

>  <REMARK>
 VINA RESULT:    -6.146      7.219     10.840
 INTER + INTRA:         -11.082
 INTER:                  -9.695
 INTRA:                  -1.386
 UNBOUND:                -0.804
  Name = CHEMBL86708
  14 active torsions:
  status: ('A' for Active; 'I' for Inactive)
    1  A    between atoms: C_1  and  C_2
    2  A    between atoms: C_2  and  C_3
    3  A    between atoms: C_3  and  C_4
    4  A    between atoms: C_4  and  C_5
    5  A    between atoms: C_5  and  C_6
    6  A    between atoms: C_6  and  C_7
    7  A    between atoms: C_7  and  C_8
    8  A    between atoms: C_8  and  C_9
    9  A    between atoms: C_9  and  C_10
   10  A    between atoms: N_12  and  C_13
   11  A    between atoms: C_13  and  C_14
   12  A    between atoms: C_17  and  O_18
   13  A    between atoms: C_19  and  O_20
   14  A    between atoms: O_20  and  C_21
                            x       y       z     vdW  Elec       q    Type
                         _______ _______ _______ _____ _____    ______ ____

>  <TORSDO>
F 12

>  <SCORE>
-6.146

>  <RMSD_LB>
7.219

>  <RMSD_UB>
10.840

$$$$
CHEMBL86708
 OpenBabel10172500013D

 24 24  0  0  0  0  0  0  0  0999 V2000
  144.8710  139.6450  149.0820 C   0  0  0  0  0  0  0  0  0  0  0  0
  144.9280  139.4330  147.8750 O   0  0  0  0  0  0  0  0  0  0  0  0
  144.8950  140.9330  149.5430 N   0  0  0  0  0  0  0  0  0  0  0  0
  144.8920  141.6410  148.8590 H   0  0  0  0  0  0  0  0  0  0  0  0
  144.7590  138.5510  150.1230 C   0  0  0  0  0  2  0  0  0  0  0  0
  146.1040  137.9660  150.5160 C   0  0  0  0  0  2  0  0  0  0  0  0
  145.9020  136.7100  151.3600 C   0  0  0  0  0  2  0  0  0  0  0  0
  146.3510  136.9560  152.7940 C   0  0  0  0  0  2  0  0  0  0  0  0
  145.1640  136.9390  153.7490 C   0  0  0  0  0  2  0  0  0  0  0  0
  144.8600  138.3500  154.2430 C   0  0  0  0  0  2  0  0  0  0  0  0
  143.6460  138.9250  153.5230 C   0  0  0  0  0  2  0  0  0  0  0  0
  141.4850  137.9860  154.3870 C   0  0  0  0  0  1  0  0  0  0  0  0
  142.4820  139.1280  154.4900 C   0  0  0  0  0  2  0  0  0  0  0  0
  144.9240  141.3730  150.9240 C   0  0  0  0  0  2  0  0  0  0  0  0
  146.3280  141.6450  151.3970 C   0  0  0  0  0  0  0  0  0  0  0  0
  147.2540  142.2450  150.5380 C   0  0  0  0  0  3  0  0  0  0  0  0
  148.5590  142.4860  150.9660 C   0  0  0  0  0  3  0  0  0  0  0  0
  148.9590  142.1280  152.2560 C   0  0  0  0  0  0  0  0  0  0  0  0
  148.0550  141.5240  153.1360 C   0  0  0  0  0  0  0  0  0  0  0  0
  146.7410  141.2970  152.6950 C   0  0  0  0  0  3  0  0  0  0  0  0
  150.2500  142.3890  152.6220 O   0  0  0  0  0  0  0  0  0  0  0  0
  150.5820  142.0630  153.4360 H   0  0  0  0  0  0  0  0  0  0  0  0
  148.2730  141.0990  154.4190 O   0  0  0  0  0  0  0  0  0  0  0  0
  148.2380  139.7000  154.6710 C   0  0  0  0  0  1  0  0  0  0  0  0
  1  3  1  0  0  0  0
  1  5  1  0  0  0  0
  2  1  2  0  0  0  0
  3 14  1  0  0  0  0
  4  3  1  0  0  0  0
  5  6  1  0  0  0  0
  6  7  1  0  0  0  0
  7  8  1  0  0  0  0
  8  9  1  0  0  0  0
  9 10  1  0  0  0  0
 11 10  1  0  0  0  0
 11 13  1  0  0  0  0
 12 13  1  0  0  0  0
 14 15  1  0  0  0  0
 15 20  1  0  0  0  0
 16 17  1  0  0  0  0
 16 15  2  0  0  0  0
 17 18  2  0  0  0  0
 18 21  1  0  0  0  0
 18 19  1  0  0  0  0
 19 23  1  0  0  0  0
 20 19  2  0  0  0  0
 21 22  1  0  0  0  0
 23 24  1  0  0  0  0
M  END
>  <MODEL>
5

>  <REMARK>
 VINA RESULT:    -6.126      9.142     12.333
 INTER + INTRA:         -11.049
 INTER:                  -9.257
 INTRA:                  -1.791
 UNBOUND:                -0.804
  Name = CHEMBL86708
  14 active torsions:
  status: ('A' for Active; 'I' for Inactive)
    1  A    between atoms: C_1  and  C_2
    2  A    between atoms: C_2  and  C_3
    3  A    between atoms: C_3  and  C_4
    4  A    between atoms: C_4  and  C_5
    5  A    between atoms: C_5  and  C_6
    6  A    between atoms: C_6  and  C_7
    7  A    between atoms: C_7  and  C_8
    8  A    between atoms: C_8  and  C_9
    9  A    between atoms: C_9  and  C_10
   10  A    between atoms: N_12  and  C_13
   11  A    between atoms: C_13  and  C_14
   12  A    between atoms: C_17  and  O_18
   13  A    between atoms: C_19  and  O_20
   14  A    between atoms: O_20  and  C_21
                            x       y       z     vdW  Elec       q    Type
                         _______ _______ _______ _____ _____    ______ ____

>  <TORSDO>
F 12

>  <SCORE>
-6.126

>  <RMSD_LB>
9.142

>  <RMSD_UB>
12.333

$$$$
CHEMBL86708
 OpenBabel10172500013D

 24 24  0  0  0  0  0  0  0  0999 V2000
  148.7220  137.2100  158.1210 C   0  0  0  0  0  0  0  0  0  0  0  0
  148.6020  138.2150  158.8130 O   0  0  0  0  0  0  0  0  0  0  0  0
  149.0390  136.0170  158.7110 N   0  0  0  0  0  0  0  0  0  0  0  0
  149.0920  136.0170  159.6940 H   0  0  0  0  0  0  0  0  0  0  0  0
  148.5260  137.1940  156.6200 C   0  0  0  0  0  2  0  0  0  0  0  0
  147.7690  138.4070  156.1070 C   0  0  0  0  0  2  0  0  0  0  0  0
  147.2400  138.1380  154.7020 C   0  0  0  0  0  2  0  0  0  0  0  0
  146.7340  139.4270  154.0680 C   0  0  0  0  0  2  0  0  0  0  0  0
  147.8750  140.4120  153.8470 C   0  0  0  0  0  2  0  0  0  0  0  0
  147.4070  141.8380  154.1220 C   0  0  0  0  0  2  0  0  0  0  0  0
  146.3120  142.2470  153.1430 C   0  0  0  0  0  2  0  0  0  0  0  0
  145.7090  142.5250  150.7240 C   0  0  0  0  0  1  0  0  0  0  0  0
  146.8290  142.2300  151.7070 C   0  0  0  0  0  2  0  0  0  0  0  0
  149.3060  134.7520  158.0540 C   0  0  0  0  0  2  0  0  0  0  0  0
  150.7830  134.5040  157.8930 C   0  0  0  0  0  0  0  0  0  0  0  0
  151.4330  133.5790  158.7150 C   0  0  0  0  0  3  0  0  0  0  0  0
  152.8030  133.3550  158.5800 C   0  0  0  0  0  3  0  0  0  0  0  0
  153.5430  134.0560  157.6250 C   0  0  0  0  0  0  0  0  0  0  0  0
  152.9200  134.9900  156.7910 C   0  0  0  0  0  0  0  0  0  0  0  0
  151.5380  135.1970  156.9310 C   0  0  0  0  0  3  0  0  0  0  0  0
  154.8830  133.7970  157.5360 O   0  0  0  0  0  0  0  0  0  0  0  0
  155.3290  133.9110  156.7200 H   0  0  0  0  0  0  0  0  0  0  0  0
  153.4850  135.7700  155.8180 O   0  0  0  0  0  0  0  0  0  0  0  0
  152.7590  135.9530  154.6080 C   0  0  0  0  0  1  0  0  0  0  0  0
  1  3  1  0  0  0  0
  1  2  2  0  0  0  0
  3  4  1  0  0  0  0
  5  1  1  0  0  0  0
  6  5  1  0  0  0  0
  7  6  1  0  0  0  0
  8  7  1  0  0  0  0
  9  8  1  0  0  0  0
  9 10  1  0  0  0  0
 11 10  1  0  0  0  0
 12 13  1  0  0  0  0
 13 11  1  0  0  0  0
 14  3  1  0  0  0  0
 15 14  1  0  0  0  0
 15 16  1  0  0  0  0
 17 16  2  0  0  0  0
 18 17  1  0  0  0  0
 19 20  1  0  0  0  0
 19 18  2  0  0  0  0
 20 15  2  0  0  0  0
 21 18  1  0  0  0  0
 22 21  1  0  0  0  0
 23 19  1  0  0  0  0
 24 23  1  0  0  0  0
M  END
>  <MODEL>
6

>  <REMARK>
 VINA RESULT:    -6.116     12.847     15.528
 INTER + INTRA:         -11.032
 INTER:                 -10.228
 INTRA:                  -0.804
 UNBOUND:                -0.804
  Name = CHEMBL86708
  14 active torsions:
  status: ('A' for Active; 'I' for Inactive)
    1  A    between atoms: C_1  and  C_2
    2  A    between atoms: C_2  and  C_3
    3  A    between atoms: C_3  and  C_4
    4  A    between atoms: C_4  and  C_5
    5  A    between atoms: C_5  and  C_6
    6  A    between atoms: C_6  and  C_7
    7  A    between atoms: C_7  and  C_8
    8  A    between atoms: C_8  and  C_9
    9  A    between atoms: C_9  and  C_10
   10  A    between atoms: N_12  and  C_13
   11  A    between atoms: C_13  and  C_14
   12  A    between atoms: C_17  and  O_18
   13  A    between atoms: C_19  and  O_20
   14  A    between atoms: O_20  and  C_21
                            x       y       z     vdW  Elec       q    Type
                         _______ _______ _______ _____ _____    ______ ____

>  <TORSDO>
F 12

>  <SCORE>
-6.116

>  <RMSD_LB>
12.847

>  <RMSD_UB>
15.528

$$$$
CHEMBL86708
 OpenBabel10172500013D

 24 24  0  0  0  0  0  0  0  0999 V2000
  145.1610  136.0460  149.1460 C   0  0  0  0  0  0  0  0  0  0  0  0
  144.1110  135.5730  148.7250 O   0  0  0  0  0  0  0  0  0  0  0  0
  145.6790  135.5950  150.3300 N   0  0  0  0  0  0  0  0  0  0  0  0
  145.2000  134.8490  150.7590 H   0  0  0  0  0  0  0  0  0  0  0  0
  145.9530  137.1140  148.4220 C   0  0  0  0  0  2  0  0  0  0  0  0
  145.3000  138.4830  148.4870 C   0  0  0  0  0  2  0  0  0  0  0  0
  145.9640  139.3290  149.5700 C   0  0  0  0  0  2  0  0  0  0  0  0
  145.0480  140.4700  149.9900 C   0  0  0  0  0  2  0  0  0  0  0  0
  145.1490  140.7310  151.4870 C   0  0  0  0  0  2  0  0  0  0  0  0
  145.5030  142.1920  151.7500 C   0  0  0  0  0  2  0  0  0  0  0  0
  146.6550  142.2990  152.7410 C   0  0  0  0  0  2  0  0  0  0  0  0
  148.8970  141.9910  151.6590 C   0  0  0  0  0  1  0  0  0  0  0  0
  147.7630  141.3060  152.4020 C   0  0  0  0  0  2  0  0  0  0  0  0
  146.8510  136.0900  151.0240 C   0  0  0  0  0  2  0  0  0  0  0  0
  146.4830  136.8900  152.2460 C   0  0  0  0  0  0  0  0  0  0  0  0
  147.4840  137.4570  153.0420 C   0  0  0  0  0  3  0  0  0  0  0  0
  147.1500  138.1870  154.1820 C   0  0  0  0  0  3  0  0  0  0  0  0
  145.8120  138.3570  154.5460 C   0  0  0  0  0  0  0  0  0  0  0  0
  144.7900  137.7990  153.7710 C   0  0  0  0  0  0  0  0  0  0  0  0
  145.1410  137.0760  152.6190 C   0  0  0  0  0  3  0  0  0  0  0  0
  145.5420  139.0820  155.6740 O   0  0  0  0  0  0  0  0  0  0  0  0
  144.9500  138.7450  156.3170 H   0  0  0  0  0  0  0  0  0  0  0  0
  143.4380  137.8530  153.9820 O   0  0  0  0  0  0  0  0  0  0  0  0
  142.8010  139.1220  153.8840 C   0  0  0  0  0  1  0  0  0  0  0  0
  1  3  1  0  0  0  0
  2  1  2  0  0  0  0
  3  4  1  0  0  0  0
  3 14  1  0  0  0  0
  5  6  1  0  0  0  0
  5  1  1  0  0  0  0
  6  7  1  0  0  0  0
  7  8  1  0  0  0  0
  8  9  1  0  0  0  0
  9 10  1  0  0  0  0
 10 11  1  0  0  0  0
 12 13  1  0  0  0  0
 13 11  1  0  0  0  0
 14 15  1  0  0  0  0
 15 20  2  0  0  0  0
 15 16  1  0  0  0  0
 16 17  2  0  0  0  0
 17 18  1  0  0  0  0
 18 21  1  0  0  0  0
 19 23  1  0  0  0  0
 19 18  2  0  0  0  0
 20 19  1  0  0  0  0
 21 22  1  0  0  0  0
 24 23  1  0  0  0  0
M  END
>  <MODEL>
7

>  <REMARK>
 VINA RESULT:    -6.046      9.189     11.748
 INTER + INTRA:         -10.914
 INTER:                  -8.935
 INTRA:                  -1.980
 UNBOUND:                -0.804
  Name = CHEMBL86708
  14 active torsions:
  status: ('A' for Active; 'I' for Inactive)
    1  A    between atoms: C_1  and  C_2
    2  A    between atoms: C_2  and  C_3
    3  A    between atoms: C_3  and  C_4
    4  A    between atoms: C_4  and  C_5
    5  A    between atoms: C_5  and  C_6
    6  A    between atoms: C_6  and  C_7
    7  A    between atoms: C_7  and  C_8
    8  A    between atoms: C_8  and  C_9
    9  A    between atoms: C_9  and  C_10
   10  A    between atoms: N_12  and  C_13
   11  A    between atoms: C_13  and  C_14
   12  A    between atoms: C_17  and  O_18
   13  A    between atoms: C_19  and  O_20
   14  A    between atoms: O_20  and  C_21
                            x       y       z     vdW  Elec       q    Type
                         _______ _______ _______ _____ _____    ______ ____

>  <TORSDO>
F 12

>  <SCORE>
-6.046

>  <RMSD_LB>
9.189

>  <RMSD_UB>
11.748

$$$$
CHEMBL86708
 OpenBabel10172500013D

 24 24  0  0  0  0  0  0  0  0999 V2000
  144.3590  139.5590  154.7920 C   0  0  0  0  0  0  0  0  0  0  0  0
  143.9950  140.0060  155.8740 O   0  0  0  0  0  0  0  0  0  0  0  0
  144.0450  138.2720  154.4520 N   0  0  0  0  0  0  0  0  0  0  0  0
  143.4710  137.7820  155.0850 H   0  0  0  0  0  0  0  0  0  0  0  0
  145.1440  140.3590  153.7730 C   0  0  0  0  0  2  0  0  0  0  0  0
  146.6020  140.5400  154.1560 C   0  0  0  0  0  2  0  0  0  0  0  0
  147.1220  141.8730  153.6230 C   0  0  0  0  0  2  0  0  0  0  0  0
  148.4820  141.6880  152.9660 C   0  0  0  0  0  2  0  0  0  0  0  0
  148.4230  142.0240  151.4810 C   0  0  0  0  0  2  0  0  0  0  0  0
  146.9850  142.3100  151.0590 C   0  0  0  0  0  2  0  0  0  0  0  0
  146.6020  141.4740  149.8430 C   0  0  0  0  0  2  0  0  0  0  0  0
  146.6240  139.0200  150.3650 C   0  0  0  0  0  1  0  0  0  0  0  0
  145.7630  140.2660  150.2510 C   0  0  0  0  0  2  0  0  0  0  0  0
  144.4590  137.5480  153.2660 C   0  0  0  0  0  2  0  0  0  0  0  0
  143.3230  137.3680  152.2930 C   0  0  0  0  0  0  0  0  0  0  0  0
  142.0110  137.6430  152.6880 C   0  0  0  0  0  3  0  0  0  0  0  0
  140.9540  137.4650  151.7950 C   0  0  0  0  0  3  0  0  0  0  0  0
  141.1930  137.0050  150.4980 C   0  0  0  0  0  0  0  0  0  0  0  0
  142.4960  136.7190  150.0760 C   0  0  0  0  0  0  0  0  0  0  0  0
  143.5520  136.9140  150.9820 C   0  0  0  0  0  3  0  0  0  0  0  0
  140.1200  136.8490  149.6650 O   0  0  0  0  0  0  0  0  0  0  0  0
  139.9790  136.0310  149.2300 H   0  0  0  0  0  0  0  0  0  0  0  0
  142.9120  136.2540  148.8580 O   0  0  0  0  0  0  0  0  0  0  0  0
  143.2350  137.2110  147.8560 C   0  0  0  0  0  1  0  0  0  0  0  0
  1  2  2  0  0  0  0
  3  1  1  0  0  0  0
  3  4  1  0  0  0  0
  5  6  1  0  0  0  0
  5  1  1  0  0  0  0
  7  6  1  0  0  0  0
  8  7  1  0  0  0  0
  9  8  1  0  0  0  0
 10  9  1  0  0  0  0
 11 13  1  0  0  0  0
 11 10  1  0  0  0  0
 13 12  1  0  0  0  0
 14  3  1  0  0  0  0
 15 16  1  0  0  0  0
 15 14  1  0  0  0  0
 17 16  2  0  0  0  0
 18 17  1  0  0  0  0
 19 18  2  0  0  0  0
 19 20  1  0  0  0  0
 20 15  2  0  0  0  0
 21 18  1  0  0  0  0
 22 21  1  0  0  0  0
 23 19  1  0  0  0  0
 24 23  1  0  0  0  0
M  END
>  <MODEL>
8

>  <REMARK>
 VINA RESULT:    -6.042      7.835     11.475
 INTER + INTRA:         -10.909
 INTER:                  -9.103
 INTRA:                  -1.806
 UNBOUND:                -0.804
  Name = CHEMBL86708
  14 active torsions:
  status: ('A' for Active; 'I' for Inactive)
    1  A    between atoms: C_1  and  C_2
    2  A    between atoms: C_2  and  C_3
    3  A    between atoms: C_3  and  C_4
    4  A    between atoms: C_4  and  C_5
    5  A    between atoms: C_5  and  C_6
    6  A    between atoms: C_6  and  C_7
    7  A    between atoms: C_7  and  C_8
    8  A    between atoms: C_8  and  C_9
    9  A    between atoms: C_9  and  C_10
   10  A    between atoms: N_12  and  C_13
   11  A    between atoms: C_13  and  C_14
   12  A    between atoms: C_17  and  O_18
   13  A    between atoms: C_19  and  O_20
   14  A    between atoms: O_20  and  C_21
                            x       y       z     vdW  Elec       q    Type
                         _______ _______ _______ _____ _____    ______ ____

>  <TORSDO>
F 12

>  <SCORE>
-6.042

>  <RMSD_LB>
7.835

>  <RMSD_UB>
11.475

$$$$
CHEMBL86708
 OpenBabel10172500013D

 24 24  0  0  0  0  0  0  0  0999 V2000
  145.8630  140.8970  148.7840 C   0  0  0  0  0  0  0  0  0  0  0  0
  146.6930  141.7100  148.3930 O   0  0  0  0  0  0  0  0  0  0  0  0
  145.0140  141.2340  149.8030 N   0  0  0  0  0  0  0  0  0  0  0  0
  145.0750  142.1600  150.1310 H   0  0  0  0  0  0  0  0  0  0  0  0
  145.6990  139.5110  148.1940 C   0  0  0  0  0  2  0  0  0  0  0  0
  146.7090  138.5140  148.7340 C   0  0  0  0  0  2  0  0  0  0  0  0
  145.9860  137.3360  149.3820 C   0  0  0  0  0  2  0  0  0  0  0  0
  146.8640  136.6940  150.4470 C   0  0  0  0  0  2  0  0  0  0  0  0
  146.0500  136.3330  151.6830 C   0  0  0  0  0  2  0  0  0  0  0  0
  146.7220  136.8790  152.9390 C   0  0  0  0  0  2  0  0  0  0  0  0
  147.9160  137.7550  152.5780 C   0  0  0  0  0  2  0  0  0  0  0  0
  148.2640  137.7650  155.0620 C   0  0  0  0  0  1  0  0  0  0  0  0
  148.9450  137.7680  153.7050 C   0  0  0  0  0  2  0  0  0  0  0  0
  144.0360  140.3840  150.4520 C   0  0  0  0  0  2  0  0  0  0  0  0
  144.3890  140.1210  151.8930 C   0  0  0  0  0  0  0  0  0  0  0  0
  143.6060  139.2540  152.6610 C   0  0  0  0  0  3  0  0  0  0  0  0
  143.9200  139.0180  153.9990 C   0  0  0  0  0  3  0  0  0  0  0  0
  145.0180  139.6490  154.5900 C   0  0  0  0  0  0  0  0  0  0  0  0
  145.8170  140.5240  153.8470 C   0  0  0  0  0  0  0  0  0  0  0  0
  145.4960  140.7430  152.4970 C   0  0  0  0  0  3  0  0  0  0  0  0
  145.2800  139.3810  155.9050 O   0  0  0  0  0  0  0  0  0  0  0  0
  144.7220  139.7270  156.5740 H   0  0  0  0  0  0  0  0  0  0  0  0
  146.9140  141.2320  154.2610 O   0  0  0  0  0  0  0  0  0  0  0  0
  147.9510  141.4630  153.3150 C   0  0  0  0  0  1  0  0  0  0  0  0
  1  3  1  0  0  0  0
  2  1  2  0  0  0  0
  3  4  1  0  0  0  0
  3 14  1  0  0  0  0
  5  6  1  0  0  0  0
  5  1  1  0  0  0  0
  6  7  1  0  0  0  0
  7  8  1  0  0  0  0
  8  9  1  0  0  0  0
  9 10  1  0  0  0  0
 11 10  1  0  0  0  0
 11 13  1  0  0  0  0
 13 12  1  0  0  0  0
 14 15  1  0  0  0  0
 15 20  2  0  0  0  0
 15 16  1  0  0  0  0
 16 17  2  0  0  0  0
 17 18  1  0  0  0  0
 18 21  1  0  0  0  0
 19 23  1  0  0  0  0
 19 18  2  0  0  0  0
 20 19  1  0  0  0  0
 21 22  1  0  0  0  0
 24 23  1  0  0  0  0
M  END
>  <MODEL>
9

>  <REMARK>
 VINA RESULT:    -6.012      9.957     12.051
 INTER + INTRA:         -10.858
 INTER:                  -8.445
 INTRA:                  -2.413
 UNBOUND:                -0.804
  Name = CHEMBL86708
  14 active torsions:
  status: ('A' for Active; 'I' for Inactive)
    1  A    between atoms: C_1  and  C_2
    2  A    between atoms: C_2  and  C_3
    3  A    between atoms: C_3  and  C_4
    4  A    between atoms: C_4  and  C_5
    5  A    between atoms: C_5  and  C_6
    6  A    between atoms: C_6  and  C_7
    7  A    between atoms: C_7  and  C_8
    8  A    between atoms: C_8  and  C_9
    9  A    between atoms: C_9  and  C_10
   10  A    between atoms: N_12  and  C_13
   11  A    between atoms: C_13  and  C_14
   12  A    between atoms: C_17  and  O_18
   13  A    between atoms: C_19  and  O_20
   14  A    between atoms: O_20  and  C_21
                            x       y       z     vdW  Elec       q    Type
                         _______ _______ _______ _____ _____    ______ ____

>  <TORSDO>
F 12

>  <SCORE>
-6.012

>  <RMSD_LB>
9.957

>  <RMSD_UB>
12.051

$$$$
