CHEMBL190452
 OpenBabel10172500513D

 25 25  0  0  0  0  0  0  0  0999 V2000
  135.4180  135.0670  154.6500 C   0  0  0  0  0  2  0  0  0  0  0  0
  136.1710  135.8100  155.7220 C   0  0  0  0  0  0  0  0  0  0  0  0
  137.3080  136.5670  155.4020 C   0  0  0  0  0  3  0  0  0  0  0  0
  138.0000  137.3230  156.3660 C   0  0  0  0  0  0  0  0  0  0  0  0
  137.4980  137.3260  157.6880 C   0  0  0  0  0  0  0  0  0  0  0  0
  136.3700  136.5490  158.0350 C   0  0  0  0  0  0  0  0  0  0  0  0
  135.7240  135.7980  157.0440 C   0  0  0  0  0  3  0  0  0  0  0  0
  139.2560  138.0350  155.8970 C   0  0  0  0  0  2  0  0  0  0  0  0
  140.5950  137.4590  156.3430 C   0  0  0  0  0  1  0  0  0  0  0  0
  138.0490  138.1010  158.6640 O   0  0  0  0  0  0  0  0  0  0  0  0
  137.5170  138.4120  159.3710 H   0  0  0  0  0  0  0  0  0  0  0  0
  135.7820  136.4140  159.2660 O   0  0  0  0  0  0  0  0  0  0  0  0
  134.6770  135.5300  159.4020 C   0  0  0  0  0  1  0  0  0  0  0  0
  135.2030  136.0010  152.3920 C   0  0  0  0  0  0  0  0  0  0  0  0
  134.0520  136.3550  152.5920 O   0  0  0  0  0  0  0  0  0  0  0  0
  135.9660  135.3350  153.3330 N   0  0  0  0  0  0  0  0  0  0  0  0
  136.8800  135.0430  153.1090 H   0  0  0  0  0  0  0  0  0  0  0  0
  135.9230  136.2480  151.0780 C   0  0  0  0  0  2  0  0  0  0  0  0
  137.3750  136.6630  151.3370 C   0  0  0  0  0  2  0  0  0  0  0  0
  137.8140  137.8290  150.4530 C   0  0  0  0  0  2  0  0  0  0  0  0
  138.9450  138.6160  151.1200 C   0  0  0  0  0  2  0  0  0  0  0  0
  139.7520  137.7390  152.0760 C   0  0  0  0  0  2  0  0  0  0  0  0
  141.0630  137.2820  151.4340 C   0  0  0  0  0  2  0  0  0  0  0  0
  141.9730  138.7560  153.2600 C   0  0  0  0  0  1  0  0  0  0  0  0
  142.2560  137.5800  152.3400 C   0  0  0  0  0  2  0  0  0  0  0  0
  1  2  1  0  0  0  0
  2  7  1  0  0  0  0
  3  2  2  0  0  0  0
  3  4  1  0  0  0  0
  4  5  2  0  0  0  0
  5  6  1  0  0  0  0
  5 10  1  0  0  0  0
  6 12  1  0  0  0  0
  7  6  2  0  0  0  0
  8  9  1  0  0  0  0
  8  4  1  0  0  0  0
 10 11  1  0  0  0  0
 12 13  1  0  0  0  0
 14 15  2  0  0  0  0
 14 16  1  0  0  0  0
 16  1  1  0  0  0  0
 17 16  1  0  0  0  0
 18 19  1  0  0  0  0
 18 14  1  0  0  0  0
 20 21  1  0  0  0  0
 20 19  1  0  0  0  0
 21 22  1  0  0  0  0
 23 22  1  0  0  0  0
 23 25  1  0  0  0  0
 25 24  1  0  0  0  0
M  END
>  <MODEL>
1

>  <REMARK>
 VINA RESULT:    -5.415      0.000      0.000
 INTER + INTRA:         -11.547
 INTER:                 -10.060
 INTRA:                  -1.487
 UNBOUND:                -2.491
  Name = CHEMBL190452
  15 active torsions:
  status: ('A' for Active; 'I' for Inactive)
    1  A    between atoms: C_1  and  C_2
    2  A    between atoms: C_2  and  C_3
    3  A    between atoms: C_3  and  C_4
    4  A    between atoms: C_4  and  C_5
    5  A    between atoms: C_5  and  C_6
    6  A    between atoms: C_6  and  C_7
    7  A    between atoms: C_7  and  C_8
    8  A    between atoms: C_8  and  C_9
    9  A    between atoms: N_11  and  C_12
   10  A    between atoms: C_12  and  C_13
   11  A    between atoms: C_15  and  C_16
   12  A    between atoms: C_16  and  C_17
   13  A    between atoms: C_18  and  O_19
   14  A    between atoms: C_20  and  O_21
   15  A    between atoms: O_21  and  C_22
                            x       y       z     vdW  Elec       q    Type
                         _______ _______ _______ _____ _____    ______ ____

>  <TORSDO>
F 12

>  <SCORE>
-5.415

>  <RMSD_LB>
0.000

>  <RMSD_UB>
0.000

$$$$
CHEMBL190452
 OpenBabel10172500513D

 25 25  0  0  0  0  0  0  0  0999 V2000
  137.5890  136.3760  150.0970 C   0  0  0  0  0  2  0  0  0  0  0  0
  136.4690  135.8220  150.9360 C   0  0  0  0  0  0  0  0  0  0  0  0
  135.6550  134.7890  150.4480 C   0  0  0  0  0  3  0  0  0  0  0  0
  134.6380  134.2050  151.2260 C   0  0  0  0  0  0  0  0  0  0  0  0
  134.4700  134.6720  152.5500 C   0  0  0  0  0  0  0  0  0  0  0  0
  135.2630  135.7290  153.0500 C   0  0  0  0  0  0  0  0  0  0  0  0
  136.2510  136.2910  152.2320 C   0  0  0  0  0  3  0  0  0  0  0  0
  133.7850  133.1490  150.5460 C   0  0  0  0  0  2  0  0  0  0  0  0
  134.0550  132.8720  149.0720 C   0  0  0  0  0  1  0  0  0  0  0  0
  133.5740  134.1020  153.4040 O   0  0  0  0  0  0  0  0  0  0  0  0
  133.4080  133.1800  153.3610 H   0  0  0  0  0  0  0  0  0  0  0  0
  135.2040  136.3170  154.2880 O   0  0  0  0  0  0  0  0  0  0  0  0
  136.2760  136.1030  155.1960 C   0  0  0  0  0  1  0  0  0  0  0  0
  137.4990  138.5820  149.0280 C   0  0  0  0  0  0  0  0  0  0  0  0
  138.2460  139.0740  149.8590 O   0  0  0  0  0  0  0  0  0  0  0  0
  137.0900  137.2620  149.0610 N   0  0  0  0  0  0  0  0  0  0  0  0
  136.4600  136.9240  148.3840 H   0  0  0  0  0  0  0  0  0  0  0  0
  136.9290  139.3740  147.8650 C   0  0  0  0  0  2  0  0  0  0  0  0
  136.7390  138.4670  146.6450 C   0  0  0  0  0  2  0  0  0  0  0  0
  136.0690  139.1900  145.4790 C   0  0  0  0  0  2  0  0  0  0  0  0
  134.5640  138.9100  145.4620 C   0  0  0  0  0  2  0  0  0  0  0  0
  134.2620  137.4430  145.7580 C   0  0  0  0  0  2  0  0  0  0  0  0
  133.0990  137.3050  146.7430 C   0  0  0  0  0  2  0  0  0  0  0  0
  132.7470  136.9660  149.2120 C   0  0  0  0  0  1  0  0  0  0  0  0
  133.5140  136.5120  147.9810 C   0  0  0  0  0  2  0  0  0  0  0  0
  1  2  1  0  0  0  0
  2  7  1  0  0  0  0
  3  2  2  0  0  0  0
  3  4  1  0  0  0  0
  4  5  2  0  0  0  0
  5  6  1  0  0  0  0
  5 10  1  0  0  0  0
  6 12  1  0  0  0  0
  7  6  2  0  0  0  0
  8  4  1  0  0  0  0
  9  8  1  0  0  0  0
 11 10  1  0  0  0  0
 12 13  1  0  0  0  0
 14 16  1  0  0  0  0
 14 15  2  0  0  0  0
 16  1  1  0  0  0  0
 17 16  1  0  0  0  0
 18 14  1  0  0  0  0
 19 18  1  0  0  0  0
 20 19  1  0  0  0  0
 21 20  1  0  0  0  0
 21 22  1  0  0  0  0
 22 23  1  0  0  0  0
 23 25  1  0  0  0  0
 25 24  1  0  0  0  0
M  END
>  <MODEL>
2

>  <REMARK>
 VINA RESULT:    -5.359      3.595      6.894
 INTER + INTRA:         -11.453
 INTER:                  -9.693
 INTRA:                  -1.760
 UNBOUND:                -2.491
  Name = CHEMBL190452
  15 active torsions:
  status: ('A' for Active; 'I' for Inactive)
    1  A    between atoms: C_1  and  C_2
    2  A    between atoms: C_2  and  C_3
    3  A    between atoms: C_3  and  C_4
    4  A    between atoms: C_4  and  C_5
    5  A    between atoms: C_5  and  C_6
    6  A    between atoms: C_6  and  C_7
    7  A    between atoms: C_7  and  C_8
    8  A    between atoms: C_8  and  C_9
    9  A    between atoms: N_11  and  C_12
   10  A    between atoms: C_12  and  C_13
   11  A    between atoms: C_15  and  C_16
   12  A    between atoms: C_16  and  C_17
   13  A    between atoms: C_18  and  O_19
   14  A    between atoms: C_20  and  O_21
   15  A    between atoms: O_21  and  C_22
                            x       y       z     vdW  Elec       q    Type
                         _______ _______ _______ _____ _____    ______ ____

>  <TORSDO>
F 12

>  <SCORE>
-5.359

>  <RMSD_LB>
3.595

>  <RMSD_UB>
6.894

$$$$
CHEMBL190452
 OpenBabel10172500513D

 25 25  0  0  0  0  0  0  0  0999 V2000
  135.2290  135.2270  154.5320 C   0  0  0  0  0  2  0  0  0  0  0  0
  136.3370  136.2400  154.6430 C   0  0  0  0  0  0  0  0  0  0  0  0
  137.0410  136.6550  153.5030 C   0  0  0  0  0  3  0  0  0  0  0  0
  138.0410  137.6440  153.5590 C   0  0  0  0  0  0  0  0  0  0  0  0
  138.3060  138.2440  154.8120 C   0  0  0  0  0  0  0  0  0  0  0  0
  137.6250  137.8220  155.9750 C   0  0  0  0  0  0  0  0  0  0  0  0
  136.6500  136.8210  155.8730 C   0  0  0  0  0  3  0  0  0  0  0  0
  138.7740  137.9420  152.2640 C   0  0  0  0  0  2  0  0  0  0  0  0
  138.1510  137.4280  150.9710 C   0  0  0  0  0  1  0  0  0  0  0  0
  139.1900  139.2740  154.9430 O   0  0  0  0  0  0  0  0  0  0  0  0
  139.3680  139.6330  155.7900 H   0  0  0  0  0  0  0  0  0  0  0  0
  137.7860  138.2710  157.2600 O   0  0  0  0  0  0  0  0  0  0  0  0
  136.9440  137.7470  158.2780 C   0  0  0  0  0  1  0  0  0  0  0  0
  134.4730  134.7240  152.2540 C   0  0  0  0  0  0  0  0  0  0  0  0
  133.5850  135.5600  152.3070 O   0  0  0  0  0  0  0  0  0  0  0  0
  135.3310  134.4590  153.3040 N   0  0  0  0  0  0  0  0  0  0  0  0
  136.0100  133.7510  153.2200 H   0  0  0  0  0  0  0  0  0  0  0  0
  134.7280  133.8720  151.0220 C   0  0  0  0  0  2  0  0  0  0  0  0
  133.4140  133.2820  150.5020 C   0  0  0  0  0  2  0  0  0  0  0  0
  133.3260  133.3110  148.9770 C   0  0  0  0  0  2  0  0  0  0  0  0
  134.3070  132.3110  148.3590 C   0  0  0  0  0  2  0  0  0  0  0  0
  134.9990  132.8910  147.1280 C   0  0  0  0  0  2  0  0  0  0  0  0
  136.2290  132.0660  146.7450 C   0  0  0  0  0  2  0  0  0  0  0  0
  135.3010  132.5250  144.4510 C   0  0  0  0  0  1  0  0  0  0  0  0
  136.5490  132.2050  145.2580 C   0  0  0  0  0  2  0  0  0  0  0  0
  1  2  1  0  0  0  0
  2  7  1  0  0  0  0
  3  4  1  0  0  0  0
  3  2  2  0  0  0  0
  4  5  2  0  0  0  0
  5 10  1  0  0  0  0
  5  6  1  0  0  0  0
  6 12  1  0  0  0  0
  7  6  2  0  0  0  0
  8  4  1  0  0  0  0
  9  8  1  0  0  0  0
 10 11  1  0  0  0  0
 12 13  1  0  0  0  0
 14 15  2  0  0  0  0
 14 16  1  0  0  0  0
 16  1  1  0  0  0  0
 17 16  1  0  0  0  0
 18 14  1  0  0  0  0
 19 18  1  0  0  0  0
 20 19  1  0  0  0  0
 21 20  1  0  0  0  0
 22 21  1  0  0  0  0
 23 22  1  0  0  0  0
 24 25  1  0  0  0  0
 25 23  1  0  0  0  0
M  END
>  <MODEL>
3

>  <REMARK>
 VINA RESULT:    -5.315      3.476      5.468
 INTER + INTRA:         -11.380
 INTER:                 -10.680
 INTRA:                  -0.700
 UNBOUND:                -2.491
  Name = CHEMBL190452
  15 active torsions:
  status: ('A' for Active; 'I' for Inactive)
    1  A    between atoms: C_1  and  C_2
    2  A    between atoms: C_2  and  C_3
    3  A    between atoms: C_3  and  C_4
    4  A    between atoms: C_4  and  C_5
    5  A    between atoms: C_5  and  C_6
    6  A    between atoms: C_6  and  C_7
    7  A    between atoms: C_7  and  C_8
    8  A    between atoms: C_8  and  C_9
    9  A    between atoms: N_11  and  C_12
   10  A    between atoms: C_12  and  C_13
   11  A    between atoms: C_15  and  C_16
   12  A    between atoms: C_16  and  C_17
   13  A    between atoms: C_18  and  O_19
   14  A    between atoms: C_20  and  O_21
   15  A    between atoms: O_21  and  C_22
                            x       y       z     vdW  Elec       q    Type
                         _______ _______ _______ _____ _____    ______ ____

>  <TORSDO>
F 12

>  <SCORE>
-5.315

>  <RMSD_LB>
3.476

>  <RMSD_UB>
5.468

$$$$
CHEMBL190452
 OpenBabel10172500513D

 25 25  0  0  0  0  0  0  0  0999 V2000
  141.4560  139.1910  154.5190 C   0  0  0  0  0  2  0  0  0  0  0  0
  140.1520  138.6310  154.0160 C   0  0  0  0  0  0  0  0  0  0  0  0
  140.0180  138.2260  152.6790 C   0  0  0  0  0  3  0  0  0  0  0  0
  138.8350  137.6420  152.1890 C   0  0  0  0  0  0  0  0  0  0  0  0
  137.7710  137.4430  153.0990 C   0  0  0  0  0  0  0  0  0  0  0  0
  137.8780  137.8690  154.4420 C   0  0  0  0  0  0  0  0  0  0  0  0
  139.0700  138.4610  154.8800 C   0  0  0  0  0  3  0  0  0  0  0  0
  138.8000  137.3200  150.7060 C   0  0  0  0  0  2  0  0  0  0  0  0
  138.1270  138.3310  149.7850 C   0  0  0  0  0  1  0  0  0  0  0  0
  136.6250  136.8020  152.7350 O   0  0  0  0  0  0  0  0  0  0  0  0
  136.6290  136.2140  152.0050 H   0  0  0  0  0  0  0  0  0  0  0  0
  136.9360  137.7820  155.4350 O   0  0  0  0  0  0  0  0  0  0  0  0
  136.9930  136.6850  156.3360 C   0  0  0  0  0  1  0  0  0  0  0  0
  143.4670  138.6020  153.2440 C   0  0  0  0  0  0  0  0  0  0  0  0
  143.7210  137.6610  153.9790 O   0  0  0  0  0  0  0  0  0  0  0  0
  142.3840  139.4400  153.4300 N   0  0  0  0  0  0  0  0  0  0  0  0
  142.2420  140.2050  152.8260 H   0  0  0  0  0  0  0  0  0  0  0  0
  144.3220  138.9600  152.0410 C   0  0  0  0  0  2  0  0  0  0  0  0
  143.9710  140.3630  151.5370 C   0  0  0  0  0  2  0  0  0  0  0  0
  144.7280  140.7320  150.2630 C   0  0  0  0  0  2  0  0  0  0  0  0
  145.6550  141.9250  150.5110 C   0  0  0  0  0  2  0  0  0  0  0  0
  145.6190  142.3700  151.9710 C   0  0  0  0  0  2  0  0  0  0  0  0
  146.9680  142.1360  152.6540 C   0  0  0  0  0  2  0  0  0  0  0  0
  149.2900  142.3350  151.7040 C   0  0  0  0  0  1  0  0  0  0  0  0
  147.9880  141.5510  151.6800 C   0  0  0  0  0  2  0  0  0  0  0  0
  2  1  1  0  0  0  0
  2  7  1  0  0  0  0
  3  2  2  0  0  0  0
  4  3  1  0  0  0  0
  4  5  2  0  0  0  0
  5  6  1  0  0  0  0
  6  7  2  0  0  0  0
  6 12  1  0  0  0  0
  8  4  1  0  0  0  0
  9  8  1  0  0  0  0
 10  5  1  0  0  0  0
 11 10  1  0  0  0  0
 12 13  1  0  0  0  0
 14 16  1  0  0  0  0
 14 15  2  0  0  0  0
 16  1  1  0  0  0  0
 17 16  1  0  0  0  0
 18 14  1  0  0  0  0
 19 18  1  0  0  0  0
 20 21  1  0  0  0  0
 20 19  1  0  0  0  0
 21 22  1  0  0  0  0
 22 23  1  0  0  0  0
 25 24  1  0  0  0  0
 25 23  1  0  0  0  0
M  END
>  <MODEL>
4

>  <REMARK>
 VINA RESULT:    -5.266      4.166      6.726
 INTER + INTRA:         -11.298
 INTER:                 -10.285
 INTRA:                  -1.012
 UNBOUND:                -2.491
  Name = CHEMBL190452
  15 active torsions:
  status: ('A' for Active; 'I' for Inactive)
    1  A    between atoms: C_1  and  C_2
    2  A    between atoms: C_2  and  C_3
    3  A    between atoms: C_3  and  C_4
    4  A    between atoms: C_4  and  C_5
    5  A    between atoms: C_5  and  C_6
    6  A    between atoms: C_6  and  C_7
    7  A    between atoms: C_7  and  C_8
    8  A    between atoms: C_8  and  C_9
    9  A    between atoms: N_11  and  C_12
   10  A    between atoms: C_12  and  C_13
   11  A    between atoms: C_15  and  C_16
   12  A    between atoms: C_16  and  C_17
   13  A    between atoms: C_18  and  O_19
   14  A    between atoms: C_20  and  O_21
   15  A    between atoms: O_21  and  C_22
                            x       y       z     vdW  Elec       q    Type
                         _______ _______ _______ _____ _____    ______ ____

>  <TORSDO>
F 12

>  <SCORE>
-5.266

>  <RMSD_LB>
4.166

>  <RMSD_UB>
6.726

$$$$
CHEMBL190452
 OpenBabel10172500513D

 25 25  0  0  0  0  0  0  0  0999 V2000
  134.7680  133.8440  149.9640 C   0  0  0  0  0  2  0  0  0  0  0  0
  135.4770  134.7190  150.9640 C   0  0  0  0  0  0  0  0  0  0  0  0
  136.3210  135.7540  150.5350 C   0  0  0  0  0  3  0  0  0  0  0  0
  136.9520  136.6290  151.4390 C   0  0  0  0  0  0  0  0  0  0  0  0
  136.6890  136.4560  152.8180 C   0  0  0  0  0  0  0  0  0  0  0  0
  135.8630  135.4030  153.2700 C   0  0  0  0  0  0  0  0  0  0  0  0
  135.2700  134.5460  152.3340 C   0  0  0  0  0  3  0  0  0  0  0  0
  137.8970  137.6560  150.8420 C   0  0  0  0  0  2  0  0  0  0  0  0
  139.3920  137.3910  150.9700 C   0  0  0  0  0  1  0  0  0  0  0  0
  137.1820  137.3130  153.7560 O   0  0  0  0  0  0  0  0  0  0  0  0
  137.7850  137.9850  153.5050 H   0  0  0  0  0  0  0  0  0  0  0  0
  135.5380  135.0780  154.5620 O   0  0  0  0  0  0  0  0  0  0  0  0
  134.1780  135.1610  154.9640 C   0  0  0  0  0  1  0  0  0  0  0  0
  135.0430  133.0020  147.6770 C   0  0  0  0  0  0  0  0  0  0  0  0
  134.2290  132.1100  147.8520 O   0  0  0  0  0  0  0  0  0  0  0  0
  135.4030  133.9040  148.6600 N   0  0  0  0  0  0  0  0  0  0  0  0
  136.0900  134.5860  148.4760 H   0  0  0  0  0  0  0  0  0  0  0  0
  135.7590  133.2150  146.3550 C   0  0  0  0  0  2  0  0  0  0  0  0
  134.7480  133.2810  145.2070 C   0  0  0  0  0  2  0  0  0  0  0  0
  135.1040  132.3360  144.0610 C   0  0  0  0  0  2  0  0  0  0  0  0
  136.3280  131.4890  144.4190 C   0  0  0  0  0  2  0  0  0  0  0  0
  137.3870  131.5400  143.3200 C   0  0  0  0  0  2  0  0  0  0  0  0
  137.6140  132.9730  142.8360 C   0  0  0  0  0  2  0  0  0  0  0  0
  138.5140  132.8750  140.4870 C   0  0  0  0  0  1  0  0  0  0  0  0
  137.2860  133.1150  141.3510 C   0  0  0  0  0  2  0  0  0  0  0  0
  1  2  1  0  0  0  0
  2  7  1  0  0  0  0
  3  2  2  0  0  0  0
  3  4  1  0  0  0  0
  4  5  2  0  0  0  0
  5  6  1  0  0  0  0
  5 10  1  0  0  0  0
  6 12  1  0  0  0  0
  7  6  2  0  0  0  0
  8  9  1  0  0  0  0
  8  4  1  0  0  0  0
 11 10  1  0  0  0  0
 12 13  1  0  0  0  0
 14 15  2  0  0  0  0
 14 16  1  0  0  0  0
 16  1  1  0  0  0  0
 17 16  1  0  0  0  0
 18 14  1  0  0  0  0
 19 18  1  0  0  0  0
 20 21  1  0  0  0  0
 20 19  1  0  0  0  0
 22 21  1  0  0  0  0
 23 22  1  0  0  0  0
 24 25  1  0  0  0  0
 25 23  1  0  0  0  0
M  END
>  <MODEL>
5

>  <REMARK>
 VINA RESULT:    -5.199      5.645      7.415
 INTER + INTRA:         -11.185
 INTER:                 -10.354
 INTRA:                  -0.831
 UNBOUND:                -2.491
  Name = CHEMBL190452
  15 active torsions:
  status: ('A' for Active; 'I' for Inactive)
    1  A    between atoms: C_1  and  C_2
    2  A    between atoms: C_2  and  C_3
    3  A    between atoms: C_3  and  C_4
    4  A    between atoms: C_4  and  C_5
    5  A    between atoms: C_5  and  C_6
    6  A    between atoms: C_6  and  C_7
    7  A    between atoms: C_7  and  C_8
    8  A    between atoms: C_8  and  C_9
    9  A    between atoms: N_11  and  C_12
   10  A    between atoms: C_12  and  C_13
   11  A    between atoms: C_15  and  C_16
   12  A    between atoms: C_16  and  C_17
   13  A    between atoms: C_18  and  O_19
   14  A    between atoms: C_20  and  O_21
   15  A    between atoms: O_21  and  C_22
                            x       y       z     vdW  Elec       q    Type
                         _______ _______ _______ _____ _____    ______ ____

>  <TORSDO>
F 12

>  <SCORE>
-5.199

>  <RMSD_LB>
5.645

>  <RMSD_UB>
7.415

$$$$
CHEMBL190452
 OpenBabel10172500513D

 25 25  0  0  0  0  0  0  0  0999 V2000
  134.7220  134.3850  154.9150 C   0  0  0  0  0  2  0  0  0  0  0  0
  135.3950  135.4030  155.7970 C   0  0  0  0  0  0  0  0  0  0  0  0
  135.5530  135.1650  157.1700 C   0  0  0  0  0  3  0  0  0  0  0  0
  136.2300  136.0650  158.0130 C   0  0  0  0  0  0  0  0  0  0  0  0
  136.7850  137.2270  157.4290 C   0  0  0  0  0  0  0  0  0  0  0  0
  136.6140  137.4970  156.0530 C   0  0  0  0  0  0  0  0  0  0  0  0
  135.9170  136.5790  155.2560 C   0  0  0  0  0  3  0  0  0  0  0  0
  136.2620  135.7180  159.4910 C   0  0  0  0  0  2  0  0  0  0  0  0
  136.6190  134.2850  159.8670 C   0  0  0  0  0  1  0  0  0  0  0  0
  137.5360  138.1060  158.1510 O   0  0  0  0  0  0  0  0  0  0  0  0
  137.1190  138.8020  158.6210 H   0  0  0  0  0  0  0  0  0  0  0  0
  137.0540  138.5840  155.3430 O   0  0  0  0  0  0  0  0  0  0  0  0
  138.2560  138.4690  154.5930 C   0  0  0  0  0  1  0  0  0  0  0  0
  134.2680  134.7700  152.5350 C   0  0  0  0  0  0  0  0  0  0  0  0
  135.1960  134.0570  152.1890 O   0  0  0  0  0  0  0  0  0  0  0  0
  133.9560  135.0210  153.8580 N   0  0  0  0  0  0  0  0  0  0  0  0
  133.2160  135.6300  154.0830 H   0  0  0  0  0  0  0  0  0  0  0  0
  133.3540  135.4690  151.5450 C   0  0  0  0  0  2  0  0  0  0  0  0
  133.6110  134.9510  150.1260 C   0  0  0  0  0  2  0  0  0  0  0  0
  132.6630  133.8180  149.7380 C   0  0  0  0  0  2  0  0  0  0  0  0
  132.6760  133.5970  148.2240 C   0  0  0  0  0  2  0  0  0  0  0  0
  134.0630  133.8380  147.6320 C   0  0  0  0  0  2  0  0  0  0  0  0
  134.0610  133.6330  146.1160 C   0  0  0  0  0  2  0  0  0  0  0  0
  135.5180  135.6660  146.3990 C   0  0  0  0  0  1  0  0  0  0  0  0
  134.8210  134.7510  145.4050 C   0  0  0  0  0  2  0  0  0  0  0  0
  1  2  1  0  0  0  0
  2  3  1  0  0  0  0
  3  4  2  0  0  0  0
  4  8  1  0  0  0  0
  5  4  1  0  0  0  0
  5 10  1  0  0  0  0
  6  5  2  0  0  0  0
  7  2  2  0  0  0  0
  7  6  1  0  0  0  0
  8  9  1  0  0  0  0
 10 11  1  0  0  0  0
 12  6  1  0  0  0  0
 13 12  1  0  0  0  0
 14 16  1  0  0  0  0
 15 14  2  0  0  0  0
 16 17  1  0  0  0  0
 16  1  1  0  0  0  0
 18 14  1  0  0  0  0
 19 18  1  0  0  0  0
 20 19  1  0  0  0  0
 21 20  1  0  0  0  0
 22 21  1  0  0  0  0
 23 22  1  0  0  0  0
 25 23  1  0  0  0  0
 25 24  1  0  0  0  0
M  END
>  <MODEL>
6

>  <REMARK>
 VINA RESULT:    -5.177      3.047      5.446
 INTER + INTRA:         -11.148
 INTER:                 -10.331
 INTRA:                  -0.818
 UNBOUND:                -2.491
  Name = CHEMBL190452
  15 active torsions:
  status: ('A' for Active; 'I' for Inactive)
    1  A    between atoms: C_1  and  C_2
    2  A    between atoms: C_2  and  C_3
    3  A    between atoms: C_3  and  C_4
    4  A    between atoms: C_4  and  C_5
    5  A    between atoms: C_5  and  C_6
    6  A    between atoms: C_6  and  C_7
    7  A    between atoms: C_7  and  C_8
    8  A    between atoms: C_8  and  C_9
    9  A    between atoms: N_11  and  C_12
   10  A    between atoms: C_12  and  C_13
   11  A    between atoms: C_15  and  C_16
   12  A    between atoms: C_16  and  C_17
   13  A    between atoms: C_18  and  O_19
   14  A    between atoms: C_20  and  O_21
   15  A    between atoms: O_21  and  C_22
                            x       y       z     vdW  Elec       q    Type
                         _______ _______ _______ _____ _____    ______ ____

>  <TORSDO>
F 12

>  <SCORE>
-5.177

>  <RMSD_LB>
3.047

>  <RMSD_UB>
5.446

$$$$
CHEMBL190452
 OpenBabel10172500513D

 25 25  0  0  0  0  0  0  0  0999 V2000
  140.2300  137.1970  150.5750 C   0  0  0  0  0  2  0  0  0  0  0  0
  140.7510  137.5620  151.9400 C   0  0  0  0  0  0  0  0  0  0  0  0
  142.1030  137.3740  152.2610 C   0  0  0  0  0  3  0  0  0  0  0  0
  142.6370  137.7590  153.5050 C   0  0  0  0  0  0  0  0  0  0  0  0
  141.7690  138.3790  154.4330 C   0  0  0  0  0  0  0  0  0  0  0  0
  140.3990  138.5530  154.1370 C   0  0  0  0  0  0  0  0  0  0  0  0
  139.9090  138.1380  152.8920 C   0  0  0  0  0  3  0  0  0  0  0  0
  144.0990  137.4290  153.7470 C   0  0  0  0  0  2  0  0  0  0  0  0
  144.9730  137.1750  152.5240 C   0  0  0  0  0  1  0  0  0  0  0  0
  142.2200  138.8670  155.6230 O   0  0  0  0  0  0  0  0  0  0  0  0
  142.8470  139.5640  155.6350 H   0  0  0  0  0  0  0  0  0  0  0  0
  139.4240  139.0990  154.9320 O   0  0  0  0  0  0  0  0  0  0  0  0
  138.5200  138.2280  155.5980 C   0  0  0  0  0  1  0  0  0  0  0  0
  138.1660  136.2430  149.6550 C   0  0  0  0  0  0  0  0  0  0  0  0
  138.7730  135.6240  148.7960 O   0  0  0  0  0  0  0  0  0  0  0  0
  138.7840  137.0700  150.5740 N   0  0  0  0  0  0  0  0  0  0  0  0
  138.2430  137.5730  151.2260 H   0  0  0  0  0  0  0  0  0  0  0  0
  136.6560  136.1780  149.8040 C   0  0  0  0  0  2  0  0  0  0  0  0
  136.2760  135.9070  151.2620 C   0  0  0  0  0  2  0  0  0  0  0  0
  136.0960  134.4180  151.5520 C   0  0  0  0  0  2  0  0  0  0  0  0
  134.6170  134.0300  151.4890 C   0  0  0  0  0  2  0  0  0  0  0  0
  133.8550  134.5210  152.7180 C   0  0  0  0  0  2  0  0  0  0  0  0
  134.5540  134.0940  154.0100 C   0  0  0  0  0  2  0  0  0  0  0  0
  135.8450  135.5070  155.6450 C   0  0  0  0  0  1  0  0  0  0  0  0
  134.4740  135.1890  155.0720 C   0  0  0  0  0  2  0  0  0  0  0  0
  1  2  1  0  0  0  0
  2  3  2  0  0  0  0
  2  7  1  0  0  0  0
  3  4  1  0  0  0  0
  4  8  1  0  0  0  0
  4  5  2  0  0  0  0
  5 10  1  0  0  0  0
  6  5  1  0  0  0  0
  6 12  1  0  0  0  0
  7  6  2  0  0  0  0
  9  8  1  0  0  0  0
 10 11  1  0  0  0  0
 12 13  1  0  0  0  0
 14 18  1  0  0  0  0
 14 16  1  0  0  0  0
 15 14  2  0  0  0  0
 16  1  1  0  0  0  0
 16 17  1  0  0  0  0
 18 19  1  0  0  0  0
 19 20  1  0  0  0  0
 21 20  1  0  0  0  0
 21 22  1  0  0  0  0
 22 23  1  0  0  0  0
 23 25  1  0  0  0  0
 25 24  1  0  0  0  0
M  END
>  <MODEL>
7

>  <REMARK>
 VINA RESULT:    -5.137      2.716      5.827
 INTER + INTRA:         -11.081
 INTER:                  -9.922
 INTRA:                  -1.159
 UNBOUND:                -2.491
  Name = CHEMBL190452
  15 active torsions:
  status: ('A' for Active; 'I' for Inactive)
    1  A    between atoms: C_1  and  C_2
    2  A    between atoms: C_2  and  C_3
    3  A    between atoms: C_3  and  C_4
    4  A    between atoms: C_4  and  C_5
    5  A    between atoms: C_5  and  C_6
    6  A    between atoms: C_6  and  C_7
    7  A    between atoms: C_7  and  C_8
    8  A    between atoms: C_8  and  C_9
    9  A    between atoms: N_11  and  C_12
   10  A    between atoms: C_12  and  C_13
   11  A    between atoms: C_15  and  C_16
   12  A    between atoms: C_16  and  C_17
   13  A    between atoms: C_18  and  O_19
   14  A    between atoms: C_20  and  O_21
   15  A    between atoms: O_21  and  C_22
                            x       y       z     vdW  Elec       q    Type
                         _______ _______ _______ _____ _____    ______ ____

>  <TORSDO>
F 12

>  <SCORE>
-5.137

>  <RMSD_LB>
2.716

>  <RMSD_UB>
5.827

$$$$
CHEMBL190452
 OpenBabel10172500513D

 25 25  0  0  0  0  0  0  0  0999 V2000
  137.6210  136.0770  149.8900 C   0  0  0  0  0  2  0  0  0  0  0  0
  136.4930  135.6470  150.7910 C   0  0  0  0  0  0  0  0  0  0  0  0
  135.5880  134.6580  150.3790 C   0  0  0  0  0  3  0  0  0  0  0  0
  134.5600  134.1880  151.2160 C   0  0  0  0  0  0  0  0  0  0  0  0
  134.4730  134.7260  152.5210 C   0  0  0  0  0  0  0  0  0  0  0  0
  135.3590  135.7420  152.9440 C   0  0  0  0  0  0  0  0  0  0  0  0
  136.3560  136.1900  152.0690 C   0  0  0  0  0  3  0  0  0  0  0  0
  133.6070  133.1690  150.6160 C   0  0  0  0  0  2  0  0  0  0  0  0
  132.8500  133.5750  149.3570 C   0  0  0  0  0  1  0  0  0  0  0  0
  133.5680  134.2650  153.4300 O   0  0  0  0  0  0  0  0  0  0  0  0
  133.8060  134.1990  154.3340 H   0  0  0  0  0  0  0  0  0  0  0  0
  135.3870  136.3890  154.1530 O   0  0  0  0  0  0  0  0  0  0  0  0
  136.5990  136.3930  154.8960 C   0  0  0  0  0  1  0  0  0  0  0  0
  136.6980  137.2400  147.9380 C   0  0  0  0  0  0  0  0  0  0  0  0
  136.5220  138.2700  148.5680 O   0  0  0  0  0  0  0  0  0  0  0  0
  137.2140  136.0860  148.4960 N   0  0  0  0  0  0  0  0  0  0  0  0
  137.3060  135.2720  147.9500 H   0  0  0  0  0  0  0  0  0  0  0  0
  136.3600  137.1100  146.4630 C   0  0  0  0  0  2  0  0  0  0  0  0
  134.8420  137.1390  146.2600 C   0  0  0  0  0  2  0  0  0  0  0  0
  134.1890  135.7880  146.5470 C   0  0  0  0  0  2  0  0  0  0  0  0
  134.5000  134.7890  145.4300 C   0  0  0  0  0  2  0  0  0  0  0  0
  134.5300  133.3540  145.9530 C   0  0  0  0  0  2  0  0  0  0  0  0
  135.6780  133.1500  146.9440 C   0  0  0  0  0  2  0  0  0  0  0  0
  136.6960  131.4930  145.3460 C   0  0  0  0  0  1  0  0  0  0  0  0
  136.9520  132.7020  146.2300 C   0  0  0  0  0  2  0  0  0  0  0  0
  1  2  1  0  0  0  0
  2  7  1  0  0  0  0
  3  2  2  0  0  0  0
  3  4  1  0  0  0  0
  4  5  2  0  0  0  0
  5  6  1  0  0  0  0
  5 10  1  0  0  0  0
  6 12  1  0  0  0  0
  7  6  2  0  0  0  0
  8  4  1  0  0  0  0
  9  8  1  0  0  0  0
 10 11  1  0  0  0  0
 12 13  1  0  0  0  0
 14 16  1  0  0  0  0
 14 15  2  0  0  0  0
 16  1  1  0  0  0  0
 17 16  1  0  0  0  0
 18 14  1  0  0  0  0
 19 18  1  0  0  0  0
 19 20  1  0  0  0  0
 21 22  1  0  0  0  0
 21 20  1  0  0  0  0
 22 23  1  0  0  0  0
 24 25  1  0  0  0  0
 25 23  1  0  0  0  0
M  END
>  <MODEL>
8

>  <REMARK>
 VINA RESULT:    -5.070      4.055      7.104
 INTER + INTRA:         -10.970
 INTER:                  -9.154
 INTRA:                  -1.815
 UNBOUND:                -2.491
  Name = CHEMBL190452
  15 active torsions:
  status: ('A' for Active; 'I' for Inactive)
    1  A    between atoms: C_1  and  C_2
    2  A    between atoms: C_2  and  C_3
    3  A    between atoms: C_3  and  C_4
    4  A    between atoms: C_4  and  C_5
    5  A    between atoms: C_5  and  C_6
    6  A    between atoms: C_6  and  C_7
    7  A    between atoms: C_7  and  C_8
    8  A    between atoms: C_8  and  C_9
    9  A    between atoms: N_11  and  C_12
   10  A    between atoms: C_12  and  C_13
   11  A    between atoms: C_15  and  C_16
   12  A    between atoms: C_16  and  C_17
   13  A    between atoms: C_18  and  O_19
   14  A    between atoms: C_20  and  O_21
   15  A    between atoms: O_21  and  C_22
                            x       y       z     vdW  Elec       q    Type
                         _______ _______ _______ _____ _____    ______ ____

>  <TORSDO>
F 12

>  <SCORE>
-5.070

>  <RMSD_LB>
4.055

>  <RMSD_UB>
7.104

$$$$
CHEMBL190452
 OpenBabel10172500513D

 25 25  0  0  0  0  0  0  0  0999 V2000
  144.5690  140.2160  149.3190 C   0  0  0  0  0  2  0  0  0  0  0  0
  144.7430  140.2170  150.8140 C   0  0  0  0  0  0  0  0  0  0  0  0
  145.5860  141.1500  151.4350 C   0  0  0  0  0  3  0  0  0  0  0  0
  145.7260  141.2190  152.8340 C   0  0  0  0  0  0  0  0  0  0  0  0
  144.9600  140.3270  153.6190 C   0  0  0  0  0  0  0  0  0  0  0  0
  144.1250  139.3620  153.0110 C   0  0  0  0  0  0  0  0  0  0  0  0
  144.0320  139.3200  151.6140 C   0  0  0  0  0  3  0  0  0  0  0  0
  146.7280  142.2270  153.3670 C   0  0  0  0  0  2  0  0  0  0  0  0
  147.9480  141.6820  154.1000 C   0  0  0  0  0  1  0  0  0  0  0  0
  144.9610  140.3850  154.9800 O   0  0  0  0  0  0  0  0  0  0  0  0
  144.6570  139.6520  155.4800 H   0  0  0  0  0  0  0  0  0  0  0  0
  143.3500  138.4090  153.6200 O   0  0  0  0  0  0  0  0  0  0  0  0
  141.9750  138.6890  153.8450 C   0  0  0  0  0  1  0  0  0  0  0  0
  146.0550  138.4910  148.4070 C   0  0  0  0  0  0  0  0  0  0  0  0
  147.0360  139.2090  148.5050 O   0  0  0  0  0  0  0  0  0  0  0  0
  144.7800  138.8930  148.7590 N   0  0  0  0  0  0  0  0  0  0  0  0
  144.0170  138.2850  148.6300 H   0  0  0  0  0  0  0  0  0  0  0  0
  146.1260  137.0690  147.8780 C   0  0  0  0  0  2  0  0  0  0  0  0
  145.4840  136.0980  148.8720 C   0  0  0  0  0  2  0  0  0  0  0  0
  146.3470  135.8760  150.1130 C   0  0  0  0  0  2  0  0  0  0  0  0
  145.5300  136.1000  151.3870 C   0  0  0  0  0  2  0  0  0  0  0  0
  146.4140  136.5390  152.5520 C   0  0  0  0  0  2  0  0  0  0  0  0
  147.4100  137.6160  152.1160 C   0  0  0  0  0  2  0  0  0  0  0  0
  147.5220  137.7400  154.6270 C   0  0  0  0  0  1  0  0  0  0  0  0
  148.1090  138.2440  153.3190 C   0  0  0  0  0  2  0  0  0  0  0  0
  1  2  1  0  0  0  0
  2  3  2  0  0  0  0
  2  7  1  0  0  0  0
  3  4  1  0  0  0  0
  4  8  1  0  0  0  0
  4  5  2  0  0  0  0
  5 10  1  0  0  0  0
  6  5  1  0  0  0  0
  6 12  1  0  0  0  0
  7  6  2  0  0  0  0
  8  9  1  0  0  0  0
 10 11  1  0  0  0  0
 12 13  1  0  0  0  0
 14 15  2  0  0  0  0
 14 16  1  0  0  0  0
 16  1  1  0  0  0  0
 17 16  1  0  0  0  0
 18 14  1  0  0  0  0
 18 19  1  0  0  0  0
 19 20  1  0  0  0  0
 20 21  1  0  0  0  0
 21 22  1  0  0  0  0
 23 22  1  0  0  0  0
 23 25  1  0  0  0  0
 25 24  1  0  0  0  0
M  END
>  <MODEL>
9

>  <REMARK>
 VINA RESULT:    -4.900      6.505      9.461
 INTER + INTRA:         -10.686
 INTER:                  -8.195
 INTRA:                  -2.491
 UNBOUND:                -2.491
  Name = CHEMBL190452
  15 active torsions:
  status: ('A' for Active; 'I' for Inactive)
    1  A    between atoms: C_1  and  C_2
    2  A    between atoms: C_2  and  C_3
    3  A    between atoms: C_3  and  C_4
    4  A    between atoms: C_4  and  C_5
    5  A    between atoms: C_5  and  C_6
    6  A    between atoms: C_6  and  C_7
    7  A    between atoms: C_7  and  C_8
    8  A    between atoms: C_8  and  C_9
    9  A    between atoms: N_11  and  C_12
   10  A    between atoms: C_12  and  C_13
   11  A    between atoms: C_15  and  C_16
   12  A    between atoms: C_16  and  C_17
   13  A    between atoms: C_18  and  O_19
   14  A    between atoms: C_20  and  O_21
   15  A    between atoms: O_21  and  C_22
                            x       y       z     vdW  Elec       q    Type
                         _______ _______ _______ _____ _____    ______ ____

>  <TORSDO>
F 12

>  <SCORE>
-4.900

>  <RMSD_LB>
6.505

>  <RMSD_UB>
9.461

$$$$
