CHEMBL264059
 OpenBabel10172500113D

 25 25  0  0  0  0  0  0  0  0999 V2000
  148.0360  139.1010  154.0450 N   0  0  0  0  0  0  0  0  0  0  0  0
  147.0680  138.4220  154.7560 C   0  0  0  0  0  0  0  0  0  0  0  0
  146.5300  138.8790  155.7620 O   0  0  0  0  0  0  0  0  0  0  0  0
  148.4360  138.6810  153.2490 H   0  0  0  0  0  0  0  0  0  0  0  0
  148.4740  140.4190  154.4500 C   0  0  0  0  0  2  0  0  0  0  0  0
  148.1660  141.4860  153.4030 C   0  0  0  0  0  2  0  0  0  0  0  0
  146.7450  142.0170  153.5940 C   0  0  0  0  0  2  0  0  0  0  0  0
  145.8110  141.5200  152.4970 C   0  0  0  0  0  2  0  0  0  0  0  0
  145.6080  142.5890  151.4260 C   0  0  0  0  0  2  0  0  0  0  0  0
  146.4030  142.2520  150.1690 C   0  0  0  0  0  2  0  0  0  0  0  0
  146.7020  140.7580  150.0900 C   0  0  0  0  0  2  0  0  0  0  0  0
  146.0230  140.1350  148.8730 C   0  0  0  0  0  2  0  0  0  0  0  0
  143.8560  139.2420  147.9780 C   0  0  0  0  0  1  0  0  0  0  0  0
  144.5060  140.1060  149.0420 C   0  0  0  0  0  2  0  0  0  0  0  0
  146.7090  137.0530  154.2020 C   0  0  0  0  0  2  0  0  0  0  0  0
  145.5450  137.0960  153.2450 C   0  0  0  0  0  0  0  0  0  0  0  0
  145.7370  136.8090  151.8890 C   0  0  0  0  0  3  0  0  0  0  0  0
  144.6710  136.8780  150.9930 C   0  0  0  0  0  3  0  0  0  0  0  0
  143.3940  137.2150  151.4430 C   0  0  0  0  0  0  0  0  0  0  0  0
  143.1680  137.4740  152.7990 C   0  0  0  0  0  0  0  0  0  0  0  0
  144.2510  137.4080  153.6890 C   0  0  0  0  0  3  0  0  0  0  0  0
  142.3870  137.2870  150.5190 O   0  0  0  0  0  0  0  0  0  0  0  0
  142.3100  138.0390  149.9660 H   0  0  0  0  0  0  0  0  0  0  0  0
  141.9870  137.8040  153.4140 O   0  0  0  0  0  0  0  0  0  0  0  0
  142.0340  138.7120  154.5030 C   0  0  0  0  0  1  0  0  0  0  0  0
  1  5  1  0  0  0  0
  1  2  1  0  0  0  0
  2  3  2  0  0  0  0
  4  1  1  0  0  0  0
  6  7  1  0  0  0  0
  6  5  1  0  0  0  0
  8  7  1  0  0  0  0
  9  8  1  0  0  0  0
 10  9  1  0  0  0  0
 11 10  1  0  0  0  0
 12 14  1  0  0  0  0
 12 11  1  0  0  0  0
 13 14  1  0  0  0  0
 15  2  1  0  0  0  0
 16 21  1  0  0  0  0
 16 15  1  0  0  0  0
 17 16  2  0  0  0  0
 18 19  2  0  0  0  0
 18 17  1  0  0  0  0
 19 20  1  0  0  0  0
 20 24  1  0  0  0  0
 20 21  2  0  0  0  0
 22 19  1  0  0  0  0
 23 22  1  0  0  0  0
 24 25  1  0  0  0  0
M  END
>  <MODEL>
1

>  <REMARK>
 VINA RESULT:    -5.350      0.000      0.000
 INTER + INTRA:         -11.705
 INTER:                  -9.850
 INTRA:                  -1.855
 UNBOUND:                -2.446
  Name = CHEMBL264059
  15 active torsions:
  status: ('A' for Active; 'I' for Inactive)
    1  A    between atoms: C_1  and  C_2
    2  A    between atoms: C_2  and  C_3
    3  A    between atoms: C_3  and  C_4
    4  A    between atoms: C_4  and  C_5
    5  A    between atoms: C_5  and  C_6
    6  A    between atoms: C_6  and  C_7
    7  A    between atoms: C_7  and  C_8
    8  A    between atoms: C_8  and  C_9
    9  A    between atoms: C_9  and  C_10
   10  A    between atoms: C_10  and  N_11
   11  A    between atoms: C_12  and  C_14
   12  A    between atoms: C_14  and  C_15
   13  A    between atoms: C_18  and  O_19
   14  A    between atoms: C_20  and  O_21
   15  A    between atoms: O_21  and  C_22
                            x       y       z     vdW  Elec       q    Type
                         _______ _______ _______ _____ _____    ______ ____

>  <TORSDO>
F 13

>  <SCORE>
-5.350

>  <RMSD_LB>
0.000

>  <RMSD_UB>
0.000

$$$$
CHEMBL264059
 OpenBabel10172500113D

 25 25  0  0  0  0  0  0  0  0999 V2000
  144.8290  140.0310  153.1200 N   0  0  0  0  0  0  0  0  0  0  0  0
  144.6500  138.7000  153.4380 C   0  0  0  0  0  0  0  0  0  0  0  0
  145.2820  138.1320  154.3260 O   0  0  0  0  0  0  0  0  0  0  0  0
  144.2970  140.4300  152.3940 H   0  0  0  0  0  0  0  0  0  0  0  0
  145.7850  140.8490  153.8350 C   0  0  0  0  0  2  0  0  0  0  0  0
  146.2490  142.0530  153.0210 C   0  0  0  0  0  2  0  0  0  0  0  0
  147.7100  141.8780  152.6060 C   0  0  0  0  0  2  0  0  0  0  0  0
  147.9340  142.3020  151.1590 C   0  0  0  0  0  2  0  0  0  0  0  0
  146.6050  142.5450  150.4480 C   0  0  0  0  0  2  0  0  0  0  0  0
  146.4190  141.5580  149.3000 C   0  0  0  0  0  2  0  0  0  0  0  0
  146.2350  140.1350  149.8200 C   0  0  0  0  0  2  0  0  0  0  0  0
  145.0030  139.4870  149.1950 C   0  0  0  0  0  2  0  0  0  0  0  0
  142.5100  139.6090  148.9390 C   0  0  0  0  0  1  0  0  0  0  0  0
  143.7250  140.2030  149.6260 C   0  0  0  0  0  2  0  0  0  0  0  0
  143.6060  137.9770  152.6050 C   0  0  0  0  0  2  0  0  0  0  0  0
  142.1960  138.2780  153.0440 C   0  0  0  0  0  0  0  0  0  0  0  0
  141.2160  138.5980  152.0980 C   0  0  0  0  0  3  0  0  0  0  0  0
  139.9170  138.9090  152.5010 C   0  0  0  0  0  3  0  0  0  0  0  0
  139.5750  138.8830  153.8530 C   0  0  0  0  0  0  0  0  0  0  0  0
  140.5260  138.5330  154.8170 C   0  0  0  0  0  0  0  0  0  0  0  0
  141.8320  138.2300  154.3990 C   0  0  0  0  0  3  0  0  0  0  0  0
  138.2920  139.2130  154.1960 O   0  0  0  0  0  0  0  0  0  0  0  0
  137.9490  140.0560  153.9720 H   0  0  0  0  0  0  0  0  0  0  0  0
  140.3640  138.4440  156.1760 O   0  0  0  0  0  0  0  0  0  0  0  0
  140.4190  137.1570  156.7710 C   0  0  0  0  0  1  0  0  0  0  0  0
  1  2  1  0  0  0  0
  1  5  1  0  0  0  0
  2  3  2  0  0  0  0
  4  1  1  0  0  0  0
  6  5  1  0  0  0  0
  7  6  1  0  0  0  0
  8  7  1  0  0  0  0
  9  8  1  0  0  0  0
 10 11  1  0  0  0  0
 10  9  1  0  0  0  0
 12 14  1  0  0  0  0
 12 11  1  0  0  0  0
 13 14  1  0  0  0  0
 15 16  1  0  0  0  0
 15  2  1  0  0  0  0
 16 21  1  0  0  0  0
 17 18  1  0  0  0  0
 17 16  2  0  0  0  0
 18 19  2  0  0  0  0
 19 22  1  0  0  0  0
 19 20  1  0  0  0  0
 20 24  1  0  0  0  0
 21 20  2  0  0  0  0
 23 22  1  0  0  0  0
 24 25  1  0  0  0  0
M  END
>  <MODEL>
2

>  <REMARK>
 VINA RESULT:    -5.337      2.093      3.159
 INTER + INTRA:         -11.683
 INTER:                  -9.996
 INTRA:                  -1.686
 UNBOUND:                -2.446
  Name = CHEMBL264059
  15 active torsions:
  status: ('A' for Active; 'I' for Inactive)
    1  A    between atoms: C_1  and  C_2
    2  A    between atoms: C_2  and  C_3
    3  A    between atoms: C_3  and  C_4
    4  A    between atoms: C_4  and  C_5
    5  A    between atoms: C_5  and  C_6
    6  A    between atoms: C_6  and  C_7
    7  A    between atoms: C_7  and  C_8
    8  A    between atoms: C_8  and  C_9
    9  A    between atoms: C_9  and  C_10
   10  A    between atoms: C_10  and  N_11
   11  A    between atoms: C_12  and  C_14
   12  A    between atoms: C_14  and  C_15
   13  A    between atoms: C_18  and  O_19
   14  A    between atoms: C_20  and  O_21
   15  A    between atoms: O_21  and  C_22
                            x       y       z     vdW  Elec       q    Type
                         _______ _______ _______ _____ _____    ______ ____

>  <TORSDO>
F 13

>  <SCORE>
-5.337

>  <RMSD_LB>
2.093

>  <RMSD_UB>
3.159

$$$$
CHEMBL264059
 OpenBabel10172500113D

 25 25  0  0  0  0  0  0  0  0999 V2000
  138.6650  137.1330  155.4820 N   0  0  0  0  0  0  0  0  0  0  0  0
  137.2920  137.1660  155.6080 C   0  0  0  0  0  0  0  0  0  0  0  0
  136.6410  138.2080  155.5830 O   0  0  0  0  0  0  0  0  0  0  0  0
  139.1340  136.2670  155.5160 H   0  0  0  0  0  0  0  0  0  0  0  0
  139.4290  138.3480  155.3030 C   0  0  0  0  0  2  0  0  0  0  0  0
  140.1210  138.4090  153.9440 C   0  0  0  0  0  2  0  0  0  0  0  0
  139.1190  138.8030  152.8590 C   0  0  0  0  0  2  0  0  0  0  0  0
  139.1270  137.8090  151.7030 C   0  0  0  0  0  2  0  0  0  0  0  0
  137.7060  137.4100  151.3150 C   0  0  0  0  0  2  0  0  0  0  0  0
  137.7100  136.1200  150.5000 C   0  0  0  0  0  2  0  0  0  0  0  0
  136.3130  135.5100  150.4260 C   0  0  0  0  0  2  0  0  0  0  0  0
  136.0760  134.5590  151.5960 C   0  0  0  0  0  2  0  0  0  0  0  0
  134.5300  133.9280  153.4680 C   0  0  0  0  0  1  0  0  0  0  0  0
  134.7630  134.8770  152.3080 C   0  0  0  0  0  2  0  0  0  0  0  0
  136.6320  135.8080  155.7830 C   0  0  0  0  0  2  0  0  0  0  0  0
  135.8430  135.7010  157.0630 C   0  0  0  0  0  0  0  0  0  0  0  0
  134.7430  134.8400  157.1430 C   0  0  0  0  0  3  0  0  0  0  0  0
  133.9900  134.7600  158.3140 C   0  0  0  0  0  3  0  0  0  0  0  0
  134.3370  135.5250  159.4280 C   0  0  0  0  0  0  0  0  0  0  0  0
  135.4520  136.3690  159.3860 C   0  0  0  0  0  0  0  0  0  0  0  0
  136.1980  136.4460  158.1990 C   0  0  0  0  0  3  0  0  0  0  0  0
  133.5540  135.4230  160.5450 O   0  0  0  0  0  0  0  0  0  0  0  0
  133.0040  134.6750  160.6650 H   0  0  0  0  0  0  0  0  0  0  0  0
  135.9430  137.1760  160.3800 O   0  0  0  0  0  0  0  0  0  0  0  0
  136.6800  138.3280  160.0020 C   0  0  0  0  0  1  0  0  0  0  0  0
  1  4  1  0  0  0  0
  1  2  1  0  0  0  0
  2 15  1  0  0  0  0
  3  2  2  0  0  0  0
  5  1  1  0  0  0  0
  6  5  1  0  0  0  0
  7  6  1  0  0  0  0
  8  7  1  0  0  0  0
  9  8  1  0  0  0  0
 10  9  1  0  0  0  0
 11 10  1  0  0  0  0
 11 12  1  0  0  0  0
 12 14  1  0  0  0  0
 14 13  1  0  0  0  0
 15 16  1  0  0  0  0
 16 17  2  0  0  0  0
 16 21  1  0  0  0  0
 17 18  1  0  0  0  0
 18 19  2  0  0  0  0
 19 22  1  0  0  0  0
 20 19  1  0  0  0  0
 20 24  1  0  0  0  0
 21 20  2  0  0  0  0
 22 23  1  0  0  0  0
 25 24  1  0  0  0  0
M  END
>  <MODEL>
3

>  <REMARK>
 VINA RESULT:    -5.165      7.459     10.508
 INTER + INTRA:         -11.386
 INTER:                 -10.305
 INTRA:                  -1.081
 UNBOUND:                -2.446
  Name = CHEMBL264059
  15 active torsions:
  status: ('A' for Active; 'I' for Inactive)
    1  A    between atoms: C_1  and  C_2
    2  A    between atoms: C_2  and  C_3
    3  A    between atoms: C_3  and  C_4
    4  A    between atoms: C_4  and  C_5
    5  A    between atoms: C_5  and  C_6
    6  A    between atoms: C_6  and  C_7
    7  A    between atoms: C_7  and  C_8
    8  A    between atoms: C_8  and  C_9
    9  A    between atoms: C_9  and  C_10
   10  A    between atoms: C_10  and  N_11
   11  A    between atoms: C_12  and  C_14
   12  A    between atoms: C_14  and  C_15
   13  A    between atoms: C_18  and  O_19
   14  A    between atoms: C_20  and  O_21
   15  A    between atoms: O_21  and  C_22
                            x       y       z     vdW  Elec       q    Type
                         _______ _______ _______ _____ _____    ______ ____

>  <TORSDO>
F 13

>  <SCORE>
-5.165

>  <RMSD_LB>
7.459

>  <RMSD_UB>
10.508

$$$$
CHEMBL264059
 OpenBabel10172500113D

 25 25  0  0  0  0  0  0  0  0999 V2000
  145.6210  141.1400  149.5280 N   0  0  0  0  0  0  0  0  0  0  0  0
  146.1460  142.2390  150.1760 C   0  0  0  0  0  0  0  0  0  0  0  0
  147.0160  142.9550  149.6860 O   0  0  0  0  0  0  0  0  0  0  0  0
  144.9280  140.6000  149.9730 H   0  0  0  0  0  0  0  0  0  0  0  0
  146.0710  140.7680  148.2040 C   0  0  0  0  0  2  0  0  0  0  0  0
  146.5900  139.3340  148.1440 C   0  0  0  0  0  2  0  0  0  0  0  0
  146.6970  138.7530  149.5530 C   0  0  0  0  0  2  0  0  0  0  0  0
  145.6950  137.6250  149.7710 C   0  0  0  0  0  2  0  0  0  0  0  0
  146.3480  136.4420  150.4790 C   0  0  0  0  0  2  0  0  0  0  0  0
  146.9460  135.4700  149.4680 C   0  0  0  0  0  2  0  0  0  0  0  0
  148.4070  135.1660  149.7910 C   0  0  0  0  0  2  0  0  0  0  0  0
  149.3200  135.6420  148.6650 C   0  0  0  0  0  2  0  0  0  0  0  0
  149.1120  137.1200  146.6480 C   0  0  0  0  0  1  0  0  0  0  0  0
  148.5220  135.9390  147.3970 C   0  0  0  0  0  2  0  0  0  0  0  0
  145.5670  142.5060  151.5550 C   0  0  0  0  0  2  0  0  0  0  0  0
  146.2190  141.6780  152.6340 C   0  0  0  0  0  0  0  0  0  0  0  0
  147.4840  142.0240  153.1200 C   0  0  0  0  0  3  0  0  0  0  0  0
  148.1060  141.2440  154.0940 C   0  0  0  0  0  3  0  0  0  0  0  0
  147.4630  140.1190  154.6110 C   0  0  0  0  0  0  0  0  0  0  0  0
  146.1830  139.7690  154.1670 C   0  0  0  0  0  0  0  0  0  0  0  0
  145.5710  140.5590  153.1810 C   0  0  0  0  0  3  0  0  0  0  0  0
  148.1250  139.3780  155.5520 O   0  0  0  0  0  0  0  0  0  0  0  0
  147.6440  138.9230  156.2140 H   0  0  0  0  0  0  0  0  0  0  0  0
  145.4040  138.7150  154.5700 O   0  0  0  0  0  0  0  0  0  0  0  0
  145.7520  137.4170  154.1160 C   0  0  0  0  0  1  0  0  0  0  0  0
  1  4  1  0  0  0  0
  1  2  1  0  0  0  0
  2 15  1  0  0  0  0
  3  2  2  0  0  0  0
  5  1  1  0  0  0  0
  6  5  1  0  0  0  0
  6  7  1  0  0  0  0
  7  8  1  0  0  0  0
  8  9  1  0  0  0  0
 10 11  1  0  0  0  0
 10  9  1  0  0  0  0
 12 11  1  0  0  0  0
 13 14  1  0  0  0  0
 14 12  1  0  0  0  0
 15 16  1  0  0  0  0
 16 17  2  0  0  0  0
 16 21  1  0  0  0  0
 17 18  1  0  0  0  0
 18 19  2  0  0  0  0
 19 22  1  0  0  0  0
 20 24  1  0  0  0  0
 20 19  1  0  0  0  0
 21 20  2  0  0  0  0
 22 23  1  0  0  0  0
 25 24  1  0  0  0  0
M  END
>  <MODEL>
4

>  <REMARK>
 VINA RESULT:    -5.125      2.993      5.744
 INTER + INTRA:         -11.316
 INTER:                  -9.625
 INTRA:                  -1.692
 UNBOUND:                -2.446
  Name = CHEMBL264059
  15 active torsions:
  status: ('A' for Active; 'I' for Inactive)
    1  A    between atoms: C_1  and  C_2
    2  A    between atoms: C_2  and  C_3
    3  A    between atoms: C_3  and  C_4
    4  A    between atoms: C_4  and  C_5
    5  A    between atoms: C_5  and  C_6
    6  A    between atoms: C_6  and  C_7
    7  A    between atoms: C_7  and  C_8
    8  A    between atoms: C_8  and  C_9
    9  A    between atoms: C_9  and  C_10
   10  A    between atoms: C_10  and  N_11
   11  A    between atoms: C_12  and  C_14
   12  A    between atoms: C_14  and  C_15
   13  A    between atoms: C_18  and  O_19
   14  A    between atoms: C_20  and  O_21
   15  A    between atoms: O_21  and  C_22
                            x       y       z     vdW  Elec       q    Type
                         _______ _______ _______ _____ _____    ______ ____

>  <TORSDO>
F 13

>  <SCORE>
-5.125

>  <RMSD_LB>
2.993

>  <RMSD_UB>
5.744

$$$$
CHEMBL264059
 OpenBabel10172500113D

 25 25  0  0  0  0  0  0  0  0999 V2000
  139.2200  136.6970  149.4130 N   0  0  0  0  0  0  0  0  0  0  0  0
  140.0340  137.7190  149.8560 C   0  0  0  0  0  0  0  0  0  0  0  0
  140.0790  138.8220  149.3160 O   0  0  0  0  0  0  0  0  0  0  0  0
  139.2310  135.8320  149.8830 H   0  0  0  0  0  0  0  0  0  0  0  0
  138.3520  136.8740  148.2690 C   0  0  0  0  0  2  0  0  0  0  0  0
  136.9950  137.4590  148.6490 C   0  0  0  0  0  2  0  0  0  0  0  0
  136.0130  136.3370  148.9870 C   0  0  0  0  0  2  0  0  0  0  0  0
  135.8440  136.1770  150.4940 C   0  0  0  0  0  2  0  0  0  0  0  0
  136.5230  134.9030  150.9890 C   0  0  0  0  0  2  0  0  0  0  0  0
  135.6640  134.2050  152.0380 C   0  0  0  0  0  2  0  0  0  0  0  0
  134.1790  134.3380  151.7130 C   0  0  0  0  0  2  0  0  0  0  0  0
  133.6800  133.1110  150.9550 C   0  0  0  0  0  2  0  0  0  0  0  0
  134.1630  132.5010  148.5700 C   0  0  0  0  0  1  0  0  0  0  0  0
  133.4070  133.4410  149.4890 C   0  0  0  0  0  2  0  0  0  0  0  0
  140.8800  137.3830  151.0720 C   0  0  0  0  0  2  0  0  0  0  0  0
  140.1990  137.7280  152.3720 C   0  0  0  0  0  0  0  0  0  0  0  0
  138.8050  137.6770  152.4730 C   0  0  0  0  0  3  0  0  0  0  0  0
  138.1670  138.0250  153.6640 C   0  0  0  0  0  3  0  0  0  0  0  0
  138.9160  138.4100  154.7760 C   0  0  0  0  0  0  0  0  0  0  0  0
  140.3140  138.4370  154.7130 C   0  0  0  0  0  0  0  0  0  0  0  0
  140.9420  138.0910  153.5070 C   0  0  0  0  0  3  0  0  0  0  0  0
  138.2410  138.7590  155.9140 O   0  0  0  0  0  0  0  0  0  0  0  0
  137.8770  138.0950  156.4650 H   0  0  0  0  0  0  0  0  0  0  0  0
  141.2010  138.7730  155.7030 O   0  0  0  0  0  0  0  0  0  0  0  0
  142.3370  139.5450  155.3470 C   0  0  0  0  0  1  0  0  0  0  0  0
  1  2  1  0  0  0  0
  1  4  1  0  0  0  0
  2 15  1  0  0  0  0
  3  2  2  0  0  0  0
  5  6  1  0  0  0  0
  5  1  1  0  0  0  0
  6  7  1  0  0  0  0
  7  8  1  0  0  0  0
  8  9  1  0  0  0  0
  9 10  1  0  0  0  0
 11 10  1  0  0  0  0
 12 11  1  0  0  0  0
 13 14  1  0  0  0  0
 14 12  1  0  0  0  0
 15 16  1  0  0  0  0
 16 17  2  0  0  0  0
 16 21  1  0  0  0  0
 17 18  1  0  0  0  0
 18 19  2  0  0  0  0
 19 22  1  0  0  0  0
 20 19  1  0  0  0  0
 20 24  1  0  0  0  0
 21 20  2  0  0  0  0
 22 23  1  0  0  0  0
 25 24  1  0  0  0  0
M  END
>  <MODEL>
5

>  <REMARK>
 VINA RESULT:    -5.057      6.522      9.794
 INTER + INTRA:         -11.199
 INTER:                  -9.693
 INTRA:                  -1.505
 UNBOUND:                -2.446
  Name = CHEMBL264059
  15 active torsions:
  status: ('A' for Active; 'I' for Inactive)
    1  A    between atoms: C_1  and  C_2
    2  A    between atoms: C_2  and  C_3
    3  A    between atoms: C_3  and  C_4
    4  A    between atoms: C_4  and  C_5
    5  A    between atoms: C_5  and  C_6
    6  A    between atoms: C_6  and  C_7
    7  A    between atoms: C_7  and  C_8
    8  A    between atoms: C_8  and  C_9
    9  A    between atoms: C_9  and  C_10
   10  A    between atoms: C_10  and  N_11
   11  A    between atoms: C_12  and  C_14
   12  A    between atoms: C_14  and  C_15
   13  A    between atoms: C_18  and  O_19
   14  A    between atoms: C_20  and  O_21
   15  A    between atoms: O_21  and  C_22
                            x       y       z     vdW  Elec       q    Type
                         _______ _______ _______ _____ _____    ______ ____

>  <TORSDO>
F 13

>  <SCORE>
-5.057

>  <RMSD_LB>
6.522

>  <RMSD_UB>
9.794

$$$$
CHEMBL264059
 OpenBabel10172500113D

 25 25  0  0  0  0  0  0  0  0999 V2000
  147.3590  139.3100  153.7460 N   0  0  0  0  0  0  0  0  0  0  0  0
  146.4620  138.2670  153.8380 C   0  0  0  0  0  0  0  0  0  0  0  0
  145.4560  138.3070  154.5430 O   0  0  0  0  0  0  0  0  0  0  0  0
  148.1520  139.2180  153.1680 H   0  0  0  0  0  0  0  0  0  0  0  0
  147.1570  140.5380  154.4850 C   0  0  0  0  0  2  0  0  0  0  0  0
  148.1890  141.6070  154.1380 C   0  0  0  0  0  2  0  0  0  0  0  0
  148.8540  141.2830  152.8000 C   0  0  0  0  0  2  0  0  0  0  0  0
  148.4500  142.2790  151.7190 C   0  0  0  0  0  2  0  0  0  0  0  0
  147.3900  141.6830  150.7960 C   0  0  0  0  0  2  0  0  0  0  0  0
  146.0090  142.2390  151.1290 C   0  0  0  0  0  2  0  0  0  0  0  0
  145.0380  141.1200  151.4970 C   0  0  0  0  0  2  0  0  0  0  0  0
  144.1090  140.8060  150.3270 C   0  0  0  0  0  2  0  0  0  0  0  0
  143.2040  139.3720  152.1770 C   0  0  0  0  0  1  0  0  0  0  0  0
  143.0310  139.8030  150.7320 C   0  0  0  0  0  2  0  0  0  0  0  0
  146.8070  137.0490  152.9970 C   0  0  0  0  0  2  0  0  0  0  0  0
  146.3160  137.1610  151.5760 C   0  0  0  0  0  0  0  0  0  0  0  0
  146.9660  138.0070  150.6710 C   0  0  0  0  0  3  0  0  0  0  0  0
  146.4970  138.1400  149.3640 C   0  0  0  0  0  3  0  0  0  0  0  0
  145.3860  137.4120  148.9380 C   0  0  0  0  0  0  0  0  0  0  0  0
  144.7380  136.5330  149.8120 C   0  0  0  0  0  0  0  0  0  0  0  0
  145.2150  136.4150  151.1270 C   0  0  0  0  0  3  0  0  0  0  0  0
  144.9560  137.5930  147.6510 O   0  0  0  0  0  0  0  0  0  0  0  0
  144.1870  137.1530  147.3480 H   0  0  0  0  0  0  0  0  0  0  0  0
  143.6500  135.7360  149.5630 O   0  0  0  0  0  0  0  0  0  0  0  0
  142.3700  136.3460  149.5360 C   0  0  0  0  0  1  0  0  0  0  0  0
  1  2  1  0  0  0  0
  1  5  1  0  0  0  0
  2  3  2  0  0  0  0
  4  1  1  0  0  0  0
  6  5  1  0  0  0  0
  7  6  1  0  0  0  0
  8  7  1  0  0  0  0
  9 10  1  0  0  0  0
  9  8  1  0  0  0  0
 10 11  1  0  0  0  0
 12 14  1  0  0  0  0
 12 11  1  0  0  0  0
 14 13  1  0  0  0  0
 15  2  1  0  0  0  0
 16 15  1  0  0  0  0
 17 16  2  0  0  0  0
 18 17  1  0  0  0  0
 19 18  2  0  0  0  0
 19 20  1  0  0  0  0
 20 21  2  0  0  0  0
 21 16  1  0  0  0  0
 22 19  1  0  0  0  0
 23 22  1  0  0  0  0
 24 20  1  0  0  0  0
 25 24  1  0  0  0  0
M  END
>  <MODEL>
6

>  <REMARK>
 VINA RESULT:    -5.037      1.763      2.764
 INTER + INTRA:         -11.164
 INTER:                  -8.589
 INTRA:                  -2.575
 UNBOUND:                -2.446
  Name = CHEMBL264059
  15 active torsions:
  status: ('A' for Active; 'I' for Inactive)
    1  A    between atoms: C_1  and  C_2
    2  A    between atoms: C_2  and  C_3
    3  A    between atoms: C_3  and  C_4
    4  A    between atoms: C_4  and  C_5
    5  A    between atoms: C_5  and  C_6
    6  A    between atoms: C_6  and  C_7
    7  A    between atoms: C_7  and  C_8
    8  A    between atoms: C_8  and  C_9
    9  A    between atoms: C_9  and  C_10
   10  A    between atoms: C_10  and  N_11
   11  A    between atoms: C_12  and  C_14
   12  A    between atoms: C_14  and  C_15
   13  A    between atoms: C_18  and  O_19
   14  A    between atoms: C_20  and  O_21
   15  A    between atoms: O_21  and  C_22
                            x       y       z     vdW  Elec       q    Type
                         _______ _______ _______ _____ _____    ______ ____

>  <TORSDO>
F 13

>  <SCORE>
-5.037

>  <RMSD_LB>
1.763

>  <RMSD_UB>
2.764

$$$$
CHEMBL264059
 OpenBabel10172500113D

 25 25  0  0  0  0  0  0  0  0999 V2000
  145.6330  140.7080  149.8790 N   0  0  0  0  0  0  0  0  0  0  0  0
  146.1110  141.9700  150.1650 C   0  0  0  0  0  0  0  0  0  0  0  0
  146.7680  142.6350  149.3680 O   0  0  0  0  0  0  0  0  0  0  0  0
  145.1160  140.2200  150.5600 H   0  0  0  0  0  0  0  0  0  0  0  0
  145.8800  140.0880  148.5950 C   0  0  0  0  0  2  0  0  0  0  0  0
  146.4430  138.6750  148.7240 C   0  0  0  0  0  2  0  0  0  0  0  0
  146.4410  138.2400  150.1900 C   0  0  0  0  0  2  0  0  0  0  0  0
  146.3260  136.7260  150.3230 C   0  0  0  0  0  2  0  0  0  0  0  0
  145.0360  136.2170  149.6830 C   0  0  0  0  0  2  0  0  0  0  0  0
  143.8300  136.5580  150.5520 C   0  0  0  0  0  2  0  0  0  0  0  0
  142.8430  137.4480  149.8020 C   0  0  0  0  0  2  0  0  0  0  0  0
  142.0070  138.2690  150.7790 C   0  0  0  0  0  2  0  0  0  0  0  0
  140.9030  137.9300  153.0070 C   0  0  0  0  0  1  0  0  0  0  0  0
  141.0890  137.3730  151.6080 C   0  0  0  0  0  2  0  0  0  0  0  0
  145.7630  142.4870  151.5500 C   0  0  0  0  0  2  0  0  0  0  0  0
  146.3910  141.6740  152.6530 C   0  0  0  0  0  0  0  0  0  0  0  0
  147.6860  141.9660  153.0950 C   0  0  0  0  0  3  0  0  0  0  0  0
  148.2840  141.1970  154.0930 C   0  0  0  0  0  3  0  0  0  0  0  0
  147.5890  140.1380  154.6770 C   0  0  0  0  0  0  0  0  0  0  0  0
  146.2810  139.8450  154.2770 C   0  0  0  0  0  0  0  0  0  0  0  0
  145.6920  140.6220  153.2670 C   0  0  0  0  0  3  0  0  0  0  0  0
  148.2290  139.4040  155.6380 O   0  0  0  0  0  0  0  0  0  0  0  0
  148.4470  138.5070  155.4760 H   0  0  0  0  0  0  0  0  0  0  0  0
  145.4510  138.8590  154.7470 O   0  0  0  0  0  0  0  0  0  0  0  0
  144.5140  138.2910  153.8460 C   0  0  0  0  0  1  0  0  0  0  0  0
  1  2  1  0  0  0  0
  1  4  1  0  0  0  0
  2 15  1  0  0  0  0
  3  2  2  0  0  0  0
  5  6  1  0  0  0  0
  5  1  1  0  0  0  0
  6  7  1  0  0  0  0
  7  8  1  0  0  0  0
  9  8  1  0  0  0  0
  9 10  1  0  0  0  0
 11 10  1  0  0  0  0
 11 12  1  0  0  0  0
 12 14  1  0  0  0  0
 14 13  1  0  0  0  0
 15 16  1  0  0  0  0
 16 17  2  0  0  0  0
 16 21  1  0  0  0  0
 17 18  1  0  0  0  0
 18 19  2  0  0  0  0
 19 22  1  0  0  0  0
 20 19  1  0  0  0  0
 20 24  1  0  0  0  0
 21 20  2  0  0  0  0
 23 22  1  0  0  0  0
 25 24  1  0  0  0  0
M  END
>  <MODEL>
7

>  <REMARK>
 VINA RESULT:    -4.930      2.265      5.606
 INTER + INTRA:         -10.978
 INTER:                  -9.483
 INTRA:                  -1.495
 UNBOUND:                -2.446
  Name = CHEMBL264059
  15 active torsions:
  status: ('A' for Active; 'I' for Inactive)
    1  A    between atoms: C_1  and  C_2
    2  A    between atoms: C_2  and  C_3
    3  A    between atoms: C_3  and  C_4
    4  A    between atoms: C_4  and  C_5
    5  A    between atoms: C_5  and  C_6
    6  A    between atoms: C_6  and  C_7
    7  A    between atoms: C_7  and  C_8
    8  A    between atoms: C_8  and  C_9
    9  A    between atoms: C_9  and  C_10
   10  A    between atoms: C_10  and  N_11
   11  A    between atoms: C_12  and  C_14
   12  A    between atoms: C_14  and  C_15
   13  A    between atoms: C_18  and  O_19
   14  A    between atoms: C_20  and  O_21
   15  A    between atoms: O_21  and  C_22
                            x       y       z     vdW  Elec       q    Type
                         _______ _______ _______ _____ _____    ______ ____

>  <TORSDO>
F 13

>  <SCORE>
-4.930

>  <RMSD_LB>
2.265

>  <RMSD_UB>
5.606

$$$$
CHEMBL264059
 OpenBabel10172500113D

 25 25  0  0  0  0  0  0  0  0999 V2000
  136.1650  135.0370  146.4380 N   0  0  0  0  0  0  0  0  0  0  0  0
  137.4010  134.6660  146.9260 C   0  0  0  0  0  0  0  0  0  0  0  0
  138.4270  134.7030  146.2510 O   0  0  0  0  0  0  0  0  0  0  0  0
  135.3770  134.9810  147.0250 H   0  0  0  0  0  0  0  0  0  0  0  0
  136.0080  135.5060  145.0780 C   0  0  0  0  0  2  0  0  0  0  0  0
  134.6440  136.1430  144.8330 C   0  0  0  0  0  2  0  0  0  0  0  0
  133.7340  135.9240  146.0420 C   0  0  0  0  0  2  0  0  0  0  0  0
  133.0440  137.2160  146.4640 C   0  0  0  0  0  2  0  0  0  0  0  0
  132.4600  137.0910  147.8680 C   0  0  0  0  0  2  0  0  0  0  0  0
  133.3100  136.1600  148.7260 C   0  0  0  0  0  2  0  0  0  0  0  0
  132.9010  136.2350  150.1950 C   0  0  0  0  0  2  0  0  0  0  0  0
  132.5870  134.8440  150.7390 C   0  0  0  0  0  2  0  0  0  0  0  0
  134.0670  132.9620  149.9870 C   0  0  0  0  0  1  0  0  0  0  0  0
  132.8200  133.7710  149.6780 C   0  0  0  0  0  2  0  0  0  0  0  0
  137.4060  134.2040  148.3730 C   0  0  0  0  0  2  0  0  0  0  0  0
  137.6360  135.3310  149.3470 C   0  0  0  0  0  0  0  0  0  0  0  0
  138.7280  136.1910  149.1850 C   0  0  0  0  0  3  0  0  0  0  0  0
  138.9640  137.2160  150.1010 C   0  0  0  0  0  3  0  0  0  0  0  0
  138.1010  137.4080  151.1800 C   0  0  0  0  0  0  0  0  0  0  0  0
  136.9830  136.5840  151.3470 C   0  0  0  0  0  0  0  0  0  0  0  0
  136.7610  135.5520  150.4220 C   0  0  0  0  0  3  0  0  0  0  0  0
  138.3890  138.4170  152.0590 O   0  0  0  0  0  0  0  0  0  0  0  0
  138.7360  139.2280  151.7440 H   0  0  0  0  0  0  0  0  0  0  0  0
  136.0300  136.6360  152.3320 O   0  0  0  0  0  0  0  0  0  0  0  0
  135.5340  135.4110  152.8450 C   0  0  0  0  0  1  0  0  0  0  0  0
  1  2  1  0  0  0  0
  1  4  1  0  0  0  0
  2 15  1  0  0  0  0
  3  2  2  0  0  0  0
  5  1  1  0  0  0  0
  6  5  1  0  0  0  0
  6  7  1  0  0  0  0
  7  8  1  0  0  0  0
  8  9  1  0  0  0  0
  9 10  1  0  0  0  0
 10 11  1  0  0  0  0
 11 12  1  0  0  0  0
 14 13  1  0  0  0  0
 14 12  1  0  0  0  0
 15 16  1  0  0  0  0
 16 21  1  0  0  0  0
 17 16  2  0  0  0  0
 17 18  1  0  0  0  0
 18 19  2  0  0  0  0
 19 20  1  0  0  0  0
 19 22  1  0  0  0  0
 20 24  1  0  0  0  0
 21 20  2  0  0  0  0
 23 22  1  0  0  0  0
 24 25  1  0  0  0  0
M  END
>  <MODEL>
8

>  <REMARK>
 VINA RESULT:    -4.903      8.896     11.996
 INTER + INTRA:         -10.932
 INTER:                  -9.212
 INTRA:                  -1.720
 UNBOUND:                -2.446
  Name = CHEMBL264059
  15 active torsions:
  status: ('A' for Active; 'I' for Inactive)
    1  A    between atoms: C_1  and  C_2
    2  A    between atoms: C_2  and  C_3
    3  A    between atoms: C_3  and  C_4
    4  A    between atoms: C_4  and  C_5
    5  A    between atoms: C_5  and  C_6
    6  A    between atoms: C_6  and  C_7
    7  A    between atoms: C_7  and  C_8
    8  A    between atoms: C_8  and  C_9
    9  A    between atoms: C_9  and  C_10
   10  A    between atoms: C_10  and  N_11
   11  A    between atoms: C_12  and  C_14
   12  A    between atoms: C_14  and  C_15
   13  A    between atoms: C_18  and  O_19
   14  A    between atoms: C_20  and  O_21
   15  A    between atoms: O_21  and  C_22
                            x       y       z     vdW  Elec       q    Type
                         _______ _______ _______ _____ _____    ______ ____

>  <TORSDO>
F 13

>  <SCORE>
-4.903

>  <RMSD_LB>
8.896

>  <RMSD_UB>
11.996

$$$$
CHEMBL264059
 OpenBabel10172500113D

 25 25  0  0  0  0  0  0  0  0999 V2000
  142.8430  139.8530  151.6050 N   0  0  0  0  0  0  0  0  0  0  0  0
  142.4140  138.7520  152.3160 C   0  0  0  0  0  0  0  0  0  0  0  0
  141.7400  137.8530  151.8180 O   0  0  0  0  0  0  0  0  0  0  0  0
  143.3760  140.5450  152.0600 H   0  0  0  0  0  0  0  0  0  0  0  0
  142.5240  140.0090  150.2020 C   0  0  0  0  0  2  0  0  0  0  0  0
  143.7550  139.9050  149.3070 C   0  0  0  0  0  2  0  0  0  0  0  0
  144.9360  140.6350  149.9470 C   0  0  0  0  0  2  0  0  0  0  0  0
  146.1870  139.7630  149.9690 C   0  0  0  0  0  2  0  0  0  0  0  0
  145.9420  138.4760  150.7530 C   0  0  0  0  0  2  0  0  0  0  0  0
  146.8390  137.3530  150.2420 C   0  0  0  0  0  2  0  0  0  0  0  0
  146.0140  136.1610  149.7660 C   0  0  0  0  0  2  0  0  0  0  0  0
  144.5530  136.3160  150.1780 C   0  0  0  0  0  2  0  0  0  0  0  0
  142.3560  136.0230  149.0020 C   0  0  0  0  0  1  0  0  0  0  0  0
  143.6560  135.3520  149.4060 C   0  0  0  0  0  2  0  0  0  0  0  0
  142.8350  138.7270  153.7760 C   0  0  0  0  0  2  0  0  0  0  0  0
  144.2820  138.3490  153.9600 C   0  0  0  0  0  0  0  0  0  0  0  0
  144.6860  137.0160  153.8200 C   0  0  0  0  0  3  0  0  0  0  0  0
  146.0180  136.6540  154.0210 C   0  0  0  0  0  3  0  0  0  0  0  0
  146.9680  137.6220  154.3460 C   0  0  0  0  0  0  0  0  0  0  0  0
  146.5990  138.9670  154.4600 C   0  0  0  0  0  0  0  0  0  0  0  0
  145.2540  139.3170  154.2610 C   0  0  0  0  0  3  0  0  0  0  0  0
  148.2570  137.2110  154.5510 O   0  0  0  0  0  0  0  0  0  0  0  0
  148.4920  136.7870  155.3520 H   0  0  0  0  0  0  0  0  0  0  0  0
  147.3950  140.0430  154.7560 O   0  0  0  0  0  0  0  0  0  0  0  0
  147.1680  141.2540  154.0520 C   0  0  0  0  0  1  0  0  0  0  0  0
  1  4  1  0  0  0  0
  1  2  1  0  0  0  0
  2 15  1  0  0  0  0
  3  2  2  0  0  0  0
  5  1  1  0  0  0  0
  6  7  1  0  0  0  0
  6  5  1  0  0  0  0
  7  8  1  0  0  0  0
  8  9  1  0  0  0  0
 10  9  1  0  0  0  0
 11 12  1  0  0  0  0
 11 10  1  0  0  0  0
 13 14  1  0  0  0  0
 14 12  1  0  0  0  0
 15 16  1  0  0  0  0
 16 21  1  0  0  0  0
 17 16  2  0  0  0  0
 17 18  1  0  0  0  0
 18 19  2  0  0  0  0
 19 20  1  0  0  0  0
 19 22  1  0  0  0  0
 20 24  1  0  0  0  0
 21 20  2  0  0  0  0
 22 23  1  0  0  0  0
 25 24  1  0  0  0  0
M  END
>  <MODEL>
9

>  <REMARK>
 VINA RESULT:    -4.842      2.023      4.848
 INTER + INTRA:         -10.827
 INTER:                  -8.380
 INTRA:                  -2.446
 UNBOUND:                -2.446
  Name = CHEMBL264059
  15 active torsions:
  status: ('A' for Active; 'I' for Inactive)
    1  A    between atoms: C_1  and  C_2
    2  A    between atoms: C_2  and  C_3
    3  A    between atoms: C_3  and  C_4
    4  A    between atoms: C_4  and  C_5
    5  A    between atoms: C_5  and  C_6
    6  A    between atoms: C_6  and  C_7
    7  A    between atoms: C_7  and  C_8
    8  A    between atoms: C_8  and  C_9
    9  A    between atoms: C_9  and  C_10
   10  A    between atoms: C_10  and  N_11
   11  A    between atoms: C_12  and  C_14
   12  A    between atoms: C_14  and  C_15
   13  A    between atoms: C_18  and  O_19
   14  A    between atoms: C_20  and  O_21
   15  A    between atoms: O_21  and  C_22
                            x       y       z     vdW  Elec       q    Type
                         _______ _______ _______ _____ _____    ______ ____

>  <TORSDO>
F 13

>  <SCORE>
-4.842

>  <RMSD_LB>
2.023

>  <RMSD_UB>
4.848

$$$$
