CHEMBL4227879
 OpenBabel10162523513D

 23 23  0  0  0  0  0  0  0  0999 V2000
  145.9610  137.8480  154.2610 C   0  0  0  0  0  0  0  0  0  0  0  0
  146.4630  136.7320  154.1480 O   0  0  0  0  0  0  0  0  0  0  0  0
  144.7880  138.2160  153.6410 N   0  0  0  0  0  0  0  0  0  0  0  0
  144.4470  139.1310  153.7700 H   0  0  0  0  0  0  0  0  0  0  0  0
  146.6070  138.9430  155.1150 C   0  0  0  0  0  2  0  0  0  0  0  0
  146.5020  140.2330  154.5150 O   0  0  0  0  0  0  0  0  0  0  0  0
  147.6940  140.7560  154.1230 C   0  0  0  0  0  0  0  0  0  0  0  0
  148.7880  140.3430  154.4890 O   0  0  0  0  0  0  0  0  0  0  0  0
  147.4770  141.9360  153.2080 C   0  0  0  0  0  2  0  0  0  0  0  0
  148.0480  141.7030  151.8090 C   0  0  0  0  0  2  0  0  0  0  0  0
  145.7570  142.4810  151.0980 C   0  0  0  0  0  1  0  0  0  0  0  0
  147.2240  142.3900  150.7170 C   0  0  0  0  0  2  0  0  0  0  0  0
  144.0360  137.3020  152.8060 C   0  0  0  0  0  2  0  0  0  0  0  0
  142.5520  137.5510  152.8960 C   0  0  0  0  0  0  0  0  0  0  0  0
  141.7430  137.4150  151.7640 C   0  0  0  0  0  3  0  0  0  0  0  0
  140.3750  137.6830  151.8300 C   0  0  0  0  0  3  0  0  0  0  0  0
  139.7970  138.1020  153.0330 C   0  0  0  0  0  0  0  0  0  0  0  0
  140.5810  138.2450  154.1820 C   0  0  0  0  0  0  0  0  0  0  0  0
  141.9570  137.9660  154.0980 C   0  0  0  0  0  3  0  0  0  0  0  0
  138.4540  138.3660  153.0430 O   0  0  0  0  0  0  0  0  0  0  0  0
  138.1510  139.2520  153.0150 H   0  0  0  0  0  0  0  0  0  0  0  0
  140.1920  138.6430  155.4340 O   0  0  0  0  0  0  0  0  0  0  0  0
  140.2530  137.6910  156.4870 C   0  0  0  0  0  1  0  0  0  0  0  0
  1  5  1  0  0  0  0
  2  1  2  0  0  0  0
  3  4  1  0  0  0  0
  3  1  1  0  0  0  0
  6  5  1  0  0  0  0
  7  8  2  0  0  0  0
  7  6  1  0  0  0  0
  9  7  1  0  0  0  0
 10  9  1  0  0  0  0
 12 11  1  0  0  0  0
 12 10  1  0  0  0  0
 13 14  1  0  0  0  0
 13  3  1  0  0  0  0
 14 19  1  0  0  0  0
 15 16  1  0  0  0  0
 15 14  2  0  0  0  0
 16 17  2  0  0  0  0
 17 20  1  0  0  0  0
 17 18  1  0  0  0  0
 18 22  1  0  0  0  0
 19 18  2  0  0  0  0
 21 20  1  0  0  0  0
 22 23  1  0  0  0  0
M  END
>  <MODEL>
1

>  <REMARK>
 VINA RESULT:    -6.405      0.000      0.000
 INTER + INTRA:         -10.710
 INTER:                 -10.132
 INTRA:                  -0.578
 UNBOUND:                -0.748
  Name = CHEMBL4227879
  12 active torsions:
  status: ('A' for Active; 'I' for Inactive)
    1  A    between atoms: C_1  and  C_2
    2  A    between atoms: C_2  and  C_3
    3  A    between atoms: C_3  and  C_4
    4  A    between atoms: C_4  and  C_5
    5  A    between atoms: C_5  and  O_7
    6  A    between atoms: O_7  and  C_8
    7  A    between atoms: C_8  and  C_9
    8  A    between atoms: N_11  and  C_12
    9  A    between atoms: C_12  and  C_13
   10  A    between atoms: C_16  and  O_17
   11  A    between atoms: C_18  and  O_19
   12  A    between atoms: O_19  and  C_20
                            x       y       z     vdW  Elec       q    Type
                         _______ _______ _______ _____ _____    ______ ____

>  <TORSDO>
F 10

>  <SCORE>
-6.405

>  <RMSD_LB>
0.000

>  <RMSD_UB>
0.000

$$$$
CHEMBL4227879
 OpenBabel10162523513D

 23 23  0  0  0  0  0  0  0  0999 V2000
  145.8260  137.5680  154.2270 C   0  0  0  0  0  0  0  0  0  0  0  0
  146.2450  136.5750  153.6370 O   0  0  0  0  0  0  0  0  0  0  0  0
  144.5250  138.0100  154.1330 N   0  0  0  0  0  0  0  0  0  0  0  0
  144.2600  138.8190  154.6280 H   0  0  0  0  0  0  0  0  0  0  0  0
  146.7270  138.4130  155.1320 C   0  0  0  0  0  2  0  0  0  0  0  0
  146.6070  139.8100  154.8670 O   0  0  0  0  0  0  0  0  0  0  0  0
  147.7420  140.3770  154.3790 C   0  0  0  0  0  0  0  0  0  0  0  0
  148.8140  139.7940  154.2570 O   0  0  0  0  0  0  0  0  0  0  0  0
  147.5050  141.8290  154.0450 C   0  0  0  0  0  2  0  0  0  0  0  0
  147.4170  142.0760  152.5390 C   0  0  0  0  0  2  0  0  0  0  0  0
  145.9280  142.6470  150.5840 C   0  0  0  0  0  1  0  0  0  0  0  0
  145.9820  142.3240  152.0680 C   0  0  0  0  0  2  0  0  0  0  0  0
  143.5320  137.3250  153.3310 C   0  0  0  0  0  2  0  0  0  0  0  0
  142.1590  137.9240  153.5040 C   0  0  0  0  0  0  0  0  0  0  0  0
  141.7670  138.4450  154.7400 C   0  0  0  0  0  3  0  0  0  0  0  0
  140.4840  138.9650  154.9180 C   0  0  0  0  0  3  0  0  0  0  0  0
  139.5690  138.9620  153.8600 C   0  0  0  0  0  0  0  0  0  0  0  0
  139.9350  138.4480  152.6110 C   0  0  0  0  0  0  0  0  0  0  0  0
  141.2340  137.9340  152.4490 C   0  0  0  0  0  3  0  0  0  0  0  0
  138.3200  139.4690  154.0890 O   0  0  0  0  0  0  0  0  0  0  0  0
  137.5760  138.8990  154.0910 H   0  0  0  0  0  0  0  0  0  0  0  0
  139.1790  138.3620  151.4720 O   0  0  0  0  0  0  0  0  0  0  0  0
  138.2790  137.2690  151.3480 C   0  0  0  0  0  1  0  0  0  0  0  0
  1  5  1  0  0  0  0
  2  1  2  0  0  0  0
  3  1  1  0  0  0  0
  3  4  1  0  0  0  0
  6  5  1  0  0  0  0
  7  6  1  0  0  0  0
  8  7  2  0  0  0  0
  9  7  1  0  0  0  0
 10  9  1  0  0  0  0
 11 12  1  0  0  0  0
 12 10  1  0  0  0  0
 13 14  1  0  0  0  0
 13  3  1  0  0  0  0
 14 15  1  0  0  0  0
 15 16  2  0  0  0  0
 17 20  1  0  0  0  0
 17 16  1  0  0  0  0
 18 17  2  0  0  0  0
 19 18  1  0  0  0  0
 19 14  2  0  0  0  0
 20 21  1  0  0  0  0
 22 18  1  0  0  0  0
 23 22  1  0  0  0  0
M  END
>  <MODEL>
2

>  <REMARK>
 VINA RESULT:    -6.254      1.051      2.035
 INTER + INTRA:         -10.476
 INTER:                  -9.934
 INTRA:                  -0.541
 UNBOUND:                -0.748
  Name = CHEMBL4227879
  12 active torsions:
  status: ('A' for Active; 'I' for Inactive)
    1  A    between atoms: C_1  and  C_2
    2  A    between atoms: C_2  and  C_3
    3  A    between atoms: C_3  and  C_4
    4  A    between atoms: C_4  and  C_5
    5  A    between atoms: C_5  and  O_7
    6  A    between atoms: O_7  and  C_8
    7  A    between atoms: C_8  and  C_9
    8  A    between atoms: N_11  and  C_12
    9  A    between atoms: C_12  and  C_13
   10  A    between atoms: C_16  and  O_17
   11  A    between atoms: C_18  and  O_19
   12  A    between atoms: O_19  and  C_20
                            x       y       z     vdW  Elec       q    Type
                         _______ _______ _______ _____ _____    ______ ____

>  <TORSDO>
F 10

>  <SCORE>
-6.254

>  <RMSD_LB>
1.051

>  <RMSD_UB>
2.035

$$$$
CHEMBL4227879
 OpenBabel10162523513D

 23 23  0  0  0  0  0  0  0  0999 V2000
  133.9410  135.0770  153.2810 C   0  0  0  0  0  0  0  0  0  0  0  0
  134.1390  136.2900  153.3170 O   0  0  0  0  0  0  0  0  0  0  0  0
  133.2330  134.4560  152.2760 N   0  0  0  0  0  0  0  0  0  0  0  0
  133.1060  133.4800  152.3160 H   0  0  0  0  0  0  0  0  0  0  0  0
  134.4740  134.1380  154.3670 C   0  0  0  0  0  2  0  0  0  0  0  0
  135.2950  134.8150  155.3170 O   0  0  0  0  0  0  0  0  0  0  0  0
  134.7770  134.8390  156.5740 C   0  0  0  0  0  0  0  0  0  0  0  0
  133.7110  134.3280  156.8960 O   0  0  0  0  0  0  0  0  0  0  0  0
  135.6800  135.6140  157.5020 C   0  0  0  0  0  2  0  0  0  0  0  0
  136.1870  134.7640  158.6670 C   0  0  0  0  0  2  0  0  0  0  0  0
  134.4320  135.8790  160.0950 C   0  0  0  0  0  1  0  0  0  0  0  0
  135.8680  135.3850  160.0290 C   0  0  0  0  0  2  0  0  0  0  0  0
  132.6680  135.1900  151.1620 C   0  0  0  0  0  2  0  0  0  0  0  0
  133.0720  134.5960  149.8370 C   0  0  0  0  0  0  0  0  0  0  0  0
  133.4740  133.2600  149.7550 C   0  0  0  0  0  3  0  0  0  0  0  0
  133.8880  132.7140  148.5390 C   0  0  0  0  0  3  0  0  0  0  0  0
  133.9150  133.5050  147.3850 C   0  0  0  0  0  0  0  0  0  0  0  0
  133.5160  134.8450  147.4370 C   0  0  0  0  0  0  0  0  0  0  0  0
  133.0970  135.3750  148.6690 C   0  0  0  0  0  3  0  0  0  0  0  0
  134.3420  132.9270  146.2210 O   0  0  0  0  0  0  0  0  0  0  0  0
  135.0660  132.3320  146.2310 H   0  0  0  0  0  0  0  0  0  0  0  0
  133.4790  135.7610  146.4190 O   0  0  0  0  0  0  0  0  0  0  0  0
  132.7670  136.9710  146.6350 C   0  0  0  0  0  1  0  0  0  0  0  0
  1  2  2  0  0  0  0
  1  5  1  0  0  0  0
  3  4  1  0  0  0  0
  3  1  1  0  0  0  0
  5  6  1  0  0  0  0
  6  7  1  0  0  0  0
  7  8  2  0  0  0  0
  7  9  1  0  0  0  0
  9 10  1  0  0  0  0
 10 12  1  0  0  0  0
 12 11  1  0  0  0  0
 13  3  1  0  0  0  0
 14 13  1  0  0  0  0
 15 14  1  0  0  0  0
 16 15  2  0  0  0  0
 17 18  2  0  0  0  0
 17 16  1  0  0  0  0
 18 19  1  0  0  0  0
 19 14  2  0  0  0  0
 20 21  1  0  0  0  0
 20 17  1  0  0  0  0
 22 23  1  0  0  0  0
 22 18  1  0  0  0  0
M  END
>  <MODEL>
3

>  <REMARK>
 VINA RESULT:    -6.244     10.775     12.559
 INTER + INTRA:         -10.460
 INTER:                  -9.961
 INTRA:                  -0.499
 UNBOUND:                -0.748
  Name = CHEMBL4227879
  12 active torsions:
  status: ('A' for Active; 'I' for Inactive)
    1  A    between atoms: C_1  and  C_2
    2  A    between atoms: C_2  and  C_3
    3  A    between atoms: C_3  and  C_4
    4  A    between atoms: C_4  and  C_5
    5  A    between atoms: C_5  and  O_7
    6  A    between atoms: O_7  and  C_8
    7  A    between atoms: C_8  and  C_9
    8  A    between atoms: N_11  and  C_12
    9  A    between atoms: C_12  and  C_13
   10  A    between atoms: C_16  and  O_17
   11  A    between atoms: C_18  and  O_19
   12  A    between atoms: O_19  and  C_20
                            x       y       z     vdW  Elec       q    Type
                         _______ _______ _______ _____ _____    ______ ____

>  <TORSDO>
F 10

>  <SCORE>
-6.244

>  <RMSD_LB>
10.775

>  <RMSD_UB>
12.559

$$$$
CHEMBL4227879
 OpenBabel10162523513D

 23 23  0  0  0  0  0  0  0  0999 V2000
  145.6610  140.5450  148.9680 C   0  0  0  0  0  0  0  0  0  0  0  0
  146.7010  139.9770  148.6430 O   0  0  0  0  0  0  0  0  0  0  0  0
  145.6300  141.7930  149.5490 N   0  0  0  0  0  0  0  0  0  0  0  0
  144.7600  142.1840  149.7920 H   0  0  0  0  0  0  0  0  0  0  0  0
  144.2880  139.9030  148.7510 C   0  0  0  0  0  2  0  0  0  0  0  0
  144.0790  138.7680  149.5910 O   0  0  0  0  0  0  0  0  0  0  0  0
  143.8060  139.0840  150.8850 C   0  0  0  0  0  0  0  0  0  0  0  0
  143.4450  140.1900  151.2690 O   0  0  0  0  0  0  0  0  0  0  0  0
  144.0460  137.8930  151.7810 C   0  0  0  0  0  2  0  0  0  0  0  0
  144.8800  136.8080  151.0990 C   0  0  0  0  0  2  0  0  0  0  0  0
  145.7750  136.5120  153.4390 C   0  0  0  0  0  1  0  0  0  0  0  0
  146.0640  136.3530  151.9560 C   0  0  0  0  0  2  0  0  0  0  0  0
  146.8360  142.5510  149.8150 C   0  0  0  0  0  2  0  0  0  0  0  0
  147.3720  142.2840  151.1990 C   0  0  0  0  0  0  0  0  0  0  0  0
  148.7500  142.2730  151.4320 C   0  0  0  0  0  3  0  0  0  0  0  0
  149.2550  141.9870  152.7020 C   0  0  0  0  0  3  0  0  0  0  0  0
  148.3840  141.6990  153.7580 C   0  0  0  0  0  0  0  0  0  0  0  0
  147.0000  141.7040  153.5540 C   0  0  0  0  0  0  0  0  0  0  0  0
  146.5090  141.9990  152.2700 C   0  0  0  0  0  3  0  0  0  0  0  0
  148.9280  141.4110  154.9790 O   0  0  0  0  0  0  0  0  0  0  0  0
  148.7180  140.6040  155.4070 H   0  0  0  0  0  0  0  0  0  0  0  0
  146.0060  141.4460  154.4600 O   0  0  0  0  0  0  0  0  0  0  0  0
  145.3830  140.1680  154.4230 C   0  0  0  0  0  1  0  0  0  0  0  0
  1  3  1  0  0  0  0
  2  1  2  0  0  0  0
  3  4  1  0  0  0  0
  3 13  1  0  0  0  0
  5  1  1  0  0  0  0
  5  6  1  0  0  0  0
  6  7  1  0  0  0  0
  7  8  2  0  0  0  0
  7  9  1  0  0  0  0
 10  9  1  0  0  0  0
 10 12  1  0  0  0  0
 12 11  1  0  0  0  0
 13 14  1  0  0  0  0
 14 15  2  0  0  0  0
 14 19  1  0  0  0  0
 15 16  1  0  0  0  0
 16 17  2  0  0  0  0
 17 20  1  0  0  0  0
 18 17  1  0  0  0  0
 18 22  1  0  0  0  0
 19 18  2  0  0  0  0
 20 21  1  0  0  0  0
 23 22  1  0  0  0  0
M  END
>  <MODEL>
4

>  <REMARK>
 VINA RESULT:    -6.023      3.358      7.054
 INTER + INTRA:         -10.116
 INTER:                  -9.089
 INTRA:                  -1.027
 UNBOUND:                -0.748
  Name = CHEMBL4227879
  12 active torsions:
  status: ('A' for Active; 'I' for Inactive)
    1  A    between atoms: C_1  and  C_2
    2  A    between atoms: C_2  and  C_3
    3  A    between atoms: C_3  and  C_4
    4  A    between atoms: C_4  and  C_5
    5  A    between atoms: C_5  and  O_7
    6  A    between atoms: O_7  and  C_8
    7  A    between atoms: C_8  and  C_9
    8  A    between atoms: N_11  and  C_12
    9  A    between atoms: C_12  and  C_13
   10  A    between atoms: C_16  and  O_17
   11  A    between atoms: C_18  and  O_19
   12  A    between atoms: O_19  and  C_20
                            x       y       z     vdW  Elec       q    Type
                         _______ _______ _______ _____ _____    ______ ____

>  <TORSDO>
F 10

>  <SCORE>
-6.023

>  <RMSD_LB>
3.358

>  <RMSD_UB>
7.054

$$$$
CHEMBL4227879
 OpenBabel10162523513D

 23 23  0  0  0  0  0  0  0  0999 V2000
  146.0720  137.7050  154.5230 C   0  0  0  0  0  0  0  0  0  0  0  0
  146.4650  136.6080  154.1350 O   0  0  0  0  0  0  0  0  0  0  0  0
  144.7910  138.1670  154.3150 N   0  0  0  0  0  0  0  0  0  0  0  0
  144.5470  139.0610  154.6470 H   0  0  0  0  0  0  0  0  0  0  0  0
  146.9860  138.6700  155.2850 C   0  0  0  0  0  2  0  0  0  0  0  0
  146.8060  140.0250  154.8760 O   0  0  0  0  0  0  0  0  0  0  0  0
  147.7940  140.4920  154.0670 C   0  0  0  0  0  0  0  0  0  0  0  0
  148.8390  139.8960  153.8310 O   0  0  0  0  0  0  0  0  0  0  0  0
  147.4370  141.8570  153.5330 C   0  0  0  0  0  2  0  0  0  0  0  0
  146.0750  141.8750  152.8380 C   0  0  0  0  0  2  0  0  0  0  0  0
  147.4780  142.2380  150.7730 C   0  0  0  0  0  1  0  0  0  0  0  0
  146.1380  142.4970  151.4410 C   0  0  0  0  0  2  0  0  0  0  0  0
  143.7900  137.3800  153.6240 C   0  0  0  0  0  2  0  0  0  0  0  0
  143.0310  138.2020  152.6130 C   0  0  0  0  0  0  0  0  0  0  0  0
  141.6440  138.0690  152.4930 C   0  0  0  0  0  3  0  0  0  0  0  0
  140.9400  138.7960  151.5320 C   0  0  0  0  0  3  0  0  0  0  0  0
  141.6170  139.6620  150.6680 C   0  0  0  0  0  0  0  0  0  0  0  0
  143.0040  139.8160  150.7650 C   0  0  0  0  0  0  0  0  0  0  0  0
  143.6960  139.0800  151.7430 C   0  0  0  0  0  3  0  0  0  0  0  0
  140.8840  140.3410  149.7340 O   0  0  0  0  0  0  0  0  0  0  0  0
  140.9830  140.1400  148.8240 H   0  0  0  0  0  0  0  0  0  0  0  0
  143.8270  140.6090  150.0100 O   0  0  0  0  0  0  0  0  0  0  0  0
  144.4260  140.0410  148.8540 C   0  0  0  0  0  1  0  0  0  0  0  0
  1  5  1  0  0  0  0
  2  1  2  0  0  0  0
  3  1  1  0  0  0  0
  3  4  1  0  0  0  0
  6  5  1  0  0  0  0
  7  6  1  0  0  0  0
  8  7  2  0  0  0  0
  9  7  1  0  0  0  0
 10  9  1  0  0  0  0
 11 12  1  0  0  0  0
 12 10  1  0  0  0  0
 13  3  1  0  0  0  0
 14 13  1  0  0  0  0
 15 14  1  0  0  0  0
 16 15  2  0  0  0  0
 17 18  2  0  0  0  0
 17 16  1  0  0  0  0
 18 19  1  0  0  0  0
 19 14  2  0  0  0  0
 20 17  1  0  0  0  0
 21 20  1  0  0  0  0
 22 18  1  0  0  0  0
 23 22  1  0  0  0  0
M  END
>  <MODEL>
5

>  <REMARK>
 VINA RESULT:    -5.958      2.105      3.128
 INTER + INTRA:         -10.015
 INTER:                  -9.039
 INTRA:                  -0.976
 UNBOUND:                -0.748
  Name = CHEMBL4227879
  12 active torsions:
  status: ('A' for Active; 'I' for Inactive)
    1  A    between atoms: C_1  and  C_2
    2  A    between atoms: C_2  and  C_3
    3  A    between atoms: C_3  and  C_4
    4  A    between atoms: C_4  and  C_5
    5  A    between atoms: C_5  and  O_7
    6  A    between atoms: O_7  and  C_8
    7  A    between atoms: C_8  and  C_9
    8  A    between atoms: N_11  and  C_12
    9  A    between atoms: C_12  and  C_13
   10  A    between atoms: C_16  and  O_17
   11  A    between atoms: C_18  and  O_19
   12  A    between atoms: O_19  and  C_20
                            x       y       z     vdW  Elec       q    Type
                         _______ _______ _______ _____ _____    ______ ____

>  <TORSDO>
F 10

>  <SCORE>
-5.958

>  <RMSD_LB>
2.105

>  <RMSD_UB>
3.128

$$$$
CHEMBL4227879
 OpenBabel10162523513D

 23 23  0  0  0  0  0  0  0  0999 V2000
  137.3070  137.8320  155.3230 C   0  0  0  0  0  0  0  0  0  0  0  0
  136.9250  138.9980  155.3740 O   0  0  0  0  0  0  0  0  0  0  0  0
  138.6310  137.4750  155.1820 N   0  0  0  0  0  0  0  0  0  0  0  0
  138.8640  136.5200  155.1410 H   0  0  0  0  0  0  0  0  0  0  0  0
  136.3320  136.6550  155.4130 C   0  0  0  0  0  2  0  0  0  0  0  0
  135.3340  136.6980  154.3930 O   0  0  0  0  0  0  0  0  0  0  0  0
  134.5950  135.5600  154.2990 C   0  0  0  0  0  0  0  0  0  0  0  0
  133.5290  135.3750  154.8740 O   0  0  0  0  0  0  0  0  0  0  0  0
  135.2910  134.5500  153.4200 C   0  0  0  0  0  2  0  0  0  0  0  0
  135.9090  135.1870  152.1750 C   0  0  0  0  0  2  0  0  0  0  0  0
  134.2610  133.6530  151.0390 C   0  0  0  0  0  1  0  0  0  0  0  0
  135.5580  134.4300  150.8920 C   0  0  0  0  0  2  0  0  0  0  0  0
  139.6900  138.4590  155.0950 C   0  0  0  0  0  2  0  0  0  0  0  0
  140.6900  138.1140  154.0210 C   0  0  0  0  0  0  0  0  0  0  0  0
  140.2610  137.8440  152.7180 C   0  0  0  0  0  3  0  0  0  0  0  0
  141.1760  137.4840  151.7270 C   0  0  0  0  0  3  0  0  0  0  0  0
  142.5380  137.3790  152.0310 C   0  0  0  0  0  0  0  0  0  0  0  0
  142.9960  137.6440  153.3260 C   0  0  0  0  0  0  0  0  0  0  0  0
  142.0600  138.0110  154.3090 C   0  0  0  0  0  3  0  0  0  0  0  0
  143.3920  137.0090  151.0300 O   0  0  0  0  0  0  0  0  0  0  0  0
  143.1860  136.2740  150.4860 H   0  0  0  0  0  0  0  0  0  0  0  0
  144.2790  137.5900  153.8020 O   0  0  0  0  0  0  0  0  0  0  0  0
  144.8850  138.8030  154.2300 C   0  0  0  0  0  1  0  0  0  0  0  0
  1  2  2  0  0  0  0
  1  5  1  0  0  0  0
  3  1  1  0  0  0  0
  4  3  1  0  0  0  0
  6  5  1  0  0  0  0
  7  6  1  0  0  0  0
  7  8  2  0  0  0  0
  9  7  1  0  0  0  0
 10  9  1  0  0  0  0
 12 11  1  0  0  0  0
 12 10  1  0  0  0  0
 13  3  1  0  0  0  0
 14 19  1  0  0  0  0
 14 13  1  0  0  0  0
 15 14  2  0  0  0  0
 16 17  2  0  0  0  0
 16 15  1  0  0  0  0
 17 18  1  0  0  0  0
 18 22  1  0  0  0  0
 18 19  2  0  0  0  0
 20 17  1  0  0  0  0
 21 20  1  0  0  0  0
 22 23  1  0  0  0  0
M  END
>  <MODEL>
6

>  <REMARK>
 VINA RESULT:    -5.916      4.021      9.387
 INTER + INTRA:          -9.949
 INTER:                  -9.444
 INTRA:                  -0.506
 UNBOUND:                -0.748
  Name = CHEMBL4227879
  12 active torsions:
  status: ('A' for Active; 'I' for Inactive)
    1  A    between atoms: C_1  and  C_2
    2  A    between atoms: C_2  and  C_3
    3  A    between atoms: C_3  and  C_4
    4  A    between atoms: C_4  and  C_5
    5  A    between atoms: C_5  and  O_7
    6  A    between atoms: O_7  and  C_8
    7  A    between atoms: C_8  and  C_9
    8  A    between atoms: N_11  and  C_12
    9  A    between atoms: C_12  and  C_13
   10  A    between atoms: C_16  and  O_17
   11  A    between atoms: C_18  and  O_19
   12  A    between atoms: O_19  and  C_20
                            x       y       z     vdW  Elec       q    Type
                         _______ _______ _______ _____ _____    ______ ____

>  <TORSDO>
F 10

>  <SCORE>
-5.916

>  <RMSD_LB>
4.021

>  <RMSD_UB>
9.387

$$$$
CHEMBL4227879
 OpenBabel10162523513D

 23 23  0  0  0  0  0  0  0  0999 V2000
  145.3620  138.5790  150.6160 C   0  0  0  0  0  0  0  0  0  0  0  0
  146.1530  138.4510  151.5470 O   0  0  0  0  0  0  0  0  0  0  0  0
  144.1380  137.9480  150.5710 N   0  0  0  0  0  0  0  0  0  0  0  0
  143.5580  138.0900  149.7890 H   0  0  0  0  0  0  0  0  0  0  0  0
  145.6720  139.4650  149.4060 C   0  0  0  0  0  2  0  0  0  0  0  0
  145.2940  140.8250  149.6170 O   0  0  0  0  0  0  0  0  0  0  0  0
  146.2450  141.7240  149.2500 C   0  0  0  0  0  0  0  0  0  0  0  0
  146.6610  141.8670  148.1060 O   0  0  0  0  0  0  0  0  0  0  0  0
  146.7400  142.4900  150.4520 C   0  0  0  0  0  2  0  0  0  0  0  0
  145.6980  142.5630  151.5680 C   0  0  0  0  0  2  0  0  0  0  0  0
  147.7380  141.9330  152.9120 C   0  0  0  0  0  1  0  0  0  0  0  0
  146.2200  142.0090  152.8960 C   0  0  0  0  0  2  0  0  0  0  0  0
  143.6770  137.0830  151.6370 C   0  0  0  0  0  2  0  0  0  0  0  0
  142.3400  137.5230  152.1780 C   0  0  0  0  0  0  0  0  0  0  0  0
  141.1750  137.3180  151.4350 C   0  0  0  0  0  3  0  0  0  0  0  0
  139.9390  137.7590  151.9120 C   0  0  0  0  0  3  0  0  0  0  0  0
  139.8550  138.4240  153.1400 C   0  0  0  0  0  0  0  0  0  0  0  0
  141.0050  138.6420  153.9060 C   0  0  0  0  0  0  0  0  0  0  0  0
  142.2390  138.1850  153.4120 C   0  0  0  0  0  3  0  0  0  0  0  0
  138.6230  138.8500  153.5560 O   0  0  0  0  0  0  0  0  0  0  0  0
  138.0070  138.2340  153.9020 H   0  0  0  0  0  0  0  0  0  0  0  0
  141.1120  139.2700  155.1180 O   0  0  0  0  0  0  0  0  0  0  0  0
  142.4080  139.6500  155.5620 C   0  0  0  0  0  1  0  0  0  0  0  0
  1  2  2  0  0  0  0
  3  1  1  0  0  0  0
  3 13  1  0  0  0  0
  4  3  1  0  0  0  0
  5  6  1  0  0  0  0
  5  1  1  0  0  0  0
  7  6  1  0  0  0  0
  7  9  1  0  0  0  0
  8  7  2  0  0  0  0
  9 10  1  0  0  0  0
 10 12  1  0  0  0  0
 12 11  1  0  0  0  0
 13 14  1  0  0  0  0
 14 19  1  0  0  0  0
 15 16  1  0  0  0  0
 15 14  2  0  0  0  0
 16 17  2  0  0  0  0
 17 20  1  0  0  0  0
 17 18  1  0  0  0  0
 18 22  1  0  0  0  0
 19 18  2  0  0  0  0
 20 21  1  0  0  0  0
 22 23  1  0  0  0  0
M  END
>  <MODEL>
7

>  <REMARK>
 VINA RESULT:    -5.900      2.452      3.170
 INTER + INTRA:          -9.924
 INTER:                  -9.165
 INTRA:                  -0.759
 UNBOUND:                -0.748
  Name = CHEMBL4227879
  12 active torsions:
  status: ('A' for Active; 'I' for Inactive)
    1  A    between atoms: C_1  and  C_2
    2  A    between atoms: C_2  and  C_3
    3  A    between atoms: C_3  and  C_4
    4  A    between atoms: C_4  and  C_5
    5  A    between atoms: C_5  and  O_7
    6  A    between atoms: O_7  and  C_8
    7  A    between atoms: C_8  and  C_9
    8  A    between atoms: N_11  and  C_12
    9  A    between atoms: C_12  and  C_13
   10  A    between atoms: C_16  and  O_17
   11  A    between atoms: C_18  and  O_19
   12  A    between atoms: O_19  and  C_20
                            x       y       z     vdW  Elec       q    Type
                         _______ _______ _______ _____ _____    ______ ____

>  <TORSDO>
F 10

>  <SCORE>
-5.900

>  <RMSD_LB>
2.452

>  <RMSD_UB>
3.170

$$$$
CHEMBL4227879
 OpenBabel10162523513D

 23 23  0  0  0  0  0  0  0  0999 V2000
  139.1790  138.3610  152.5260 C   0  0  0  0  0  0  0  0  0  0  0  0
  139.3200  139.3760  151.8490 O   0  0  0  0  0  0  0  0  0  0  0  0
  138.4930  137.2490  152.0890 N   0  0  0  0  0  0  0  0  0  0  0  0
  138.4130  136.4720  152.6890 H   0  0  0  0  0  0  0  0  0  0  0  0
  139.7630  138.2410  153.9370 C   0  0  0  0  0  2  0  0  0  0  0  0
  139.0820  139.0690  154.8790 O   0  0  0  0  0  0  0  0  0  0  0  0
  137.9480  138.5130  155.3820 C   0  0  0  0  0  0  0  0  0  0  0  0
  136.8410  139.0350  155.3420 O   0  0  0  0  0  0  0  0  0  0  0  0
  138.2540  137.1830  156.0270 C   0  0  0  0  0  2  0  0  0  0  0  0
  137.2520  136.0980  155.6320 C   0  0  0  0  0  2  0  0  0  0  0  0
  136.7780  135.5180  158.0410 C   0  0  0  0  0  1  0  0  0  0  0  0
  136.1730  135.8810  156.6960 C   0  0  0  0  0  2  0  0  0  0  0  0
  137.8870  137.1830  150.7750 C   0  0  0  0  0  2  0  0  0  0  0  0
  136.4760  136.6560  150.8340 C   0  0  0  0  0  0  0  0  0  0  0  0
  135.7030  136.5770  149.6720 C   0  0  0  0  0  3  0  0  0  0  0  0
  134.3820  136.1280  149.7250 C   0  0  0  0  0  3  0  0  0  0  0  0
  133.8120  135.7590  150.9480 C   0  0  0  0  0  0  0  0  0  0  0  0
  134.5630  135.8270  152.1270 C   0  0  0  0  0  0  0  0  0  0  0  0
  135.8930  136.2760  152.0530 C   0  0  0  0  0  3  0  0  0  0  0  0
  132.5100  135.3400  150.9490 O   0  0  0  0  0  0  0  0  0  0  0  0
  132.2890  134.4980  150.6020 H   0  0  0  0  0  0  0  0  0  0  0  0
  134.1740  135.5120  153.4020 O   0  0  0  0  0  0  0  0  0  0  0  0
  134.4950  134.2200  153.8990 C   0  0  0  0  0  1  0  0  0  0  0  0
  1  5  1  0  0  0  0
  2  1  2  0  0  0  0
  3  1  1  0  0  0  0
  3  4  1  0  0  0  0
  5  6  1  0  0  0  0
  6  7  1  0  0  0  0
  7  9  1  0  0  0  0
  8  7  2  0  0  0  0
 10  9  1  0  0  0  0
 10 12  1  0  0  0  0
 12 11  1  0  0  0  0
 13 14  1  0  0  0  0
 13  3  1  0  0  0  0
 14 19  1  0  0  0  0
 15 16  1  0  0  0  0
 15 14  2  0  0  0  0
 16 17  2  0  0  0  0
 17 20  1  0  0  0  0
 17 18  1  0  0  0  0
 18 22  1  0  0  0  0
 19 18  2  0  0  0  0
 21 20  1  0  0  0  0
 22 23  1  0  0  0  0
M  END
>  <MODEL>
8

>  <REMARK>
 VINA RESULT:    -5.848      6.065      8.778
 INTER + INTRA:          -9.843
 INTER:                  -8.801
 INTRA:                  -1.043
 UNBOUND:                -0.748
  Name = CHEMBL4227879
  12 active torsions:
  status: ('A' for Active; 'I' for Inactive)
    1  A    between atoms: C_1  and  C_2
    2  A    between atoms: C_2  and  C_3
    3  A    between atoms: C_3  and  C_4
    4  A    between atoms: C_4  and  C_5
    5  A    between atoms: C_5  and  O_7
    6  A    between atoms: O_7  and  C_8
    7  A    between atoms: C_8  and  C_9
    8  A    between atoms: N_11  and  C_12
    9  A    between atoms: C_12  and  C_13
   10  A    between atoms: C_16  and  O_17
   11  A    between atoms: C_18  and  O_19
   12  A    between atoms: O_19  and  C_20
                            x       y       z     vdW  Elec       q    Type
                         _______ _______ _______ _____ _____    ______ ____

>  <TORSDO>
F 10

>  <SCORE>
-5.848

>  <RMSD_LB>
6.065

>  <RMSD_UB>
8.778

$$$$
CHEMBL4227879
 OpenBabel10162523513D

 23 23  0  0  0  0  0  0  0  0999 V2000
  137.4280  138.0410  155.5860 C   0  0  0  0  0  0  0  0  0  0  0  0
  136.9350  139.1380  155.3340 O   0  0  0  0  0  0  0  0  0  0  0  0
  138.7300  137.7090  155.2810 N   0  0  0  0  0  0  0  0  0  0  0  0
  139.0570  136.8080  155.5050 H   0  0  0  0  0  0  0  0  0  0  0  0
  136.6260  136.9310  156.2700 C   0  0  0  0  0  2  0  0  0  0  0  0
  136.4680  135.7820  155.4380 O   0  0  0  0  0  0  0  0  0  0  0  0
  135.2650  135.1640  155.5760 C   0  0  0  0  0  0  0  0  0  0  0  0
  134.7140  134.9480  156.6490 O   0  0  0  0  0  0  0  0  0  0  0  0
  134.7270  134.7490  154.2290 C   0  0  0  0  0  2  0  0  0  0  0  0
  135.8310  134.5820  153.1850 C   0  0  0  0  0  2  0  0  0  0  0  0
  136.3620  134.6930  150.7210 C   0  0  0  0  0  1  0  0  0  0  0  0
  135.2800  134.4600  151.7620 C   0  0  0  0  0  2  0  0  0  0  0  0
  139.6360  138.6430  154.6440 C   0  0  0  0  0  2  0  0  0  0  0  0
  140.1720  138.1040  153.3410 C   0  0  0  0  0  0  0  0  0  0  0  0
  141.5440  137.9000  153.1730 C   0  0  0  0  0  3  0  0  0  0  0  0
  142.0510  137.4400  151.9570 C   0  0  0  0  0  3  0  0  0  0  0  0
  141.1890  137.1870  150.8850 C   0  0  0  0  0  0  0  0  0  0  0  0
  139.8110  137.3810  151.0250 C   0  0  0  0  0  0  0  0  0  0  0  0
  139.3180  137.8390  152.2590 C   0  0  0  0  0  3  0  0  0  0  0  0
  141.7370  136.7520  149.7090 O   0  0  0  0  0  0  0  0  0  0  0  0
  142.0470  137.3720  149.0790 H   0  0  0  0  0  0  0  0  0  0  0  0
  138.8260  137.1890  150.0930 O   0  0  0  0  0  0  0  0  0  0  0  0
  137.7710  138.1390  150.0290 C   0  0  0  0  0  1  0  0  0  0  0  0
  1  5  1  0  0  0  0
  2  1  2  0  0  0  0
  3  4  1  0  0  0  0
  3  1  1  0  0  0  0
  6  7  1  0  0  0  0
  6  5  1  0  0  0  0
  7  8  2  0  0  0  0
  9  7  1  0  0  0  0
 10  9  1  0  0  0  0
 11 12  1  0  0  0  0
 12 10  1  0  0  0  0
 13  3  1  0  0  0  0
 14 13  1  0  0  0  0
 15 14  1  0  0  0  0
 16 15  2  0  0  0  0
 17 18  2  0  0  0  0
 17 16  1  0  0  0  0
 18 19  1  0  0  0  0
 19 14  2  0  0  0  0
 20 17  1  0  0  0  0
 21 20  1  0  0  0  0
 22 18  1  0  0  0  0
 23 22  1  0  0  0  0
M  END
>  <MODEL>
9

>  <REMARK>
 VINA RESULT:    -5.786      5.136      9.261
 INTER + INTRA:          -9.747
 INTER:                  -9.000
 INTRA:                  -0.748
 UNBOUND:                -0.748
  Name = CHEMBL4227879
  12 active torsions:
  status: ('A' for Active; 'I' for Inactive)
    1  A    between atoms: C_1  and  C_2
    2  A    between atoms: C_2  and  C_3
    3  A    between atoms: C_3  and  C_4
    4  A    between atoms: C_4  and  C_5
    5  A    between atoms: C_5  and  O_7
    6  A    between atoms: O_7  and  C_8
    7  A    between atoms: C_8  and  C_9
    8  A    between atoms: N_11  and  C_12
    9  A    between atoms: C_12  and  C_13
   10  A    between atoms: C_16  and  O_17
   11  A    between atoms: C_18  and  O_19
   12  A    between atoms: O_19  and  C_20
                            x       y       z     vdW  Elec       q    Type
                         _______ _______ _______ _____ _____    ______ ____

>  <TORSDO>
F 10

>  <SCORE>
-5.786

>  <RMSD_LB>
5.136

>  <RMSD_UB>
9.261

$$$$
