CHEMBL4226124
 OpenBabel10172500093D

 25 25  0  0  0  0  0  0  0  0999 V2000
  144.5530  138.5360  154.3440 C   0  0  0  0  0  0  0  0  0  0  0  0
  144.6790  139.6410  154.8940 O   0  0  0  0  0  0  0  0  0  0  0  0
  143.3410  137.9010  154.2320 N   0  0  0  0  0  0  0  0  0  0  0  0
  143.3020  137.0190  153.7980 H   0  0  0  0  0  0  0  0  0  0  0  0
  145.7510  137.7880  153.7650 C   0  0  0  0  0  2  0  0  0  0  0  0
  146.7320  138.6730  153.2120 O   0  0  0  0  0  0  0  0  0  0  0  0
  147.8250  138.8590  154.0010 C   0  0  0  0  0  0  0  0  0  0  0  0
  148.5930  137.9690  154.3410 O   0  0  0  0  0  0  0  0  0  0  0  0
  147.9950  140.3130  154.3660 C   0  0  0  0  0  2  0  0  0  0  0  0
  147.7040  141.2380  153.1800 C   0  0  0  0  0  2  0  0  0  0  0  0
  146.4960  142.1500  153.4110 C   0  0  0  0  0  2  0  0  0  0  0  0
  145.7750  142.4440  152.0950 C   0  0  0  0  0  2  0  0  0  0  0  0
  146.8320  142.7610  149.8350 C   0  0  0  0  0  1  0  0  0  0  0  0
  146.4530  141.7560  150.9120 C   0  0  0  0  0  2  0  0  0  0  0  0
  142.1250  138.4920  154.7330 C   0  0  0  0  0  2  0  0  0  0  0  0
  140.9300  138.1960  153.8580 C   0  0  0  0  0  0  0  0  0  0  0  0
  141.0900  137.9430  152.4890 C   0  0  0  0  0  3  0  0  0  0  0  0
  139.9850  137.6390  151.6850 C   0  0  0  0  0  3  0  0  0  0  0  0
  138.7040  137.5820  152.2400 C   0  0  0  0  0  0  0  0  0  0  0  0
  138.5110  137.8590  153.5960 C   0  0  0  0  0  0  0  0  0  0  0  0
  139.6300  138.1760  154.3880 C   0  0  0  0  0  3  0  0  0  0  0  0
  137.6590  137.2500  151.4200 O   0  0  0  0  0  0  0  0  0  0  0  0
  137.6850  137.4780  150.5120 H   0  0  0  0  0  0  0  0  0  0  0  0
  137.3320  137.8610  154.2970 O   0  0  0  0  0  0  0  0  0  0  0  0
  137.3790  138.2620  155.6600 C   0  0  0  0  0  1  0  0  0  0  0  0
  1  2  2  0  0  0  0
  3  1  1  0  0  0  0
  3 15  1  0  0  0  0
  4  3  1  0  0  0  0
  5  1  1  0  0  0  0
  6  5  1  0  0  0  0
  6  7  1  0  0  0  0
  7  8  2  0  0  0  0
  7  9  1  0  0  0  0
 10 11  1  0  0  0  0
 10  9  1  0  0  0  0
 12 11  1  0  0  0  0
 13 14  1  0  0  0  0
 14 12  1  0  0  0  0
 16 21  1  0  0  0  0
 16 15  1  0  0  0  0
 17 16  2  0  0  0  0
 18 19  2  0  0  0  0
 18 17  1  0  0  0  0
 19 20  1  0  0  0  0
 20 24  1  0  0  0  0
 20 21  2  0  0  0  0
 22 19  1  0  0  0  0
 23 22  1  0  0  0  0
 24 25  1  0  0  0  0
M  END
>  <MODEL>
1

>  <REMARK>
 VINA RESULT:    -6.095      0.000      0.000
 INTER + INTRA:         -11.118
 INTER:                 -10.310
 INTRA:                  -0.808
 UNBOUND:                -0.926
  Name = CHEMBL4226124
  14 active torsions:
  status: ('A' for Active; 'I' for Inactive)
    1  A    between atoms: C_1  and  C_2
    2  A    between atoms: C_2  and  C_3
    3  A    between atoms: C_3  and  C_4
    4  A    between atoms: C_4  and  C_5
    5  A    between atoms: C_5  and  C_6
    6  A    between atoms: C_6  and  C_7
    7  A    between atoms: C_7  and  O_9
    8  A    between atoms: O_9  and  C_10
    9  A    between atoms: C_10  and  C_11
   10  A    between atoms: N_13  and  C_14
   11  A    between atoms: C_14  and  C_15
   12  A    between atoms: C_18  and  O_19
   13  A    between atoms: C_20  and  O_21
   14  A    between atoms: O_21  and  C_22
                            x       y       z     vdW  Elec       q    Type
                         _______ _______ _______ _____ _____    ______ ____

>  <TORSDO>
F 12

>  <SCORE>
-6.095

>  <RMSD_LB>
0.000

>  <RMSD_UB>
0.000

$$$$
CHEMBL4226124
 OpenBabel10172500093D

 25 25  0  0  0  0  0  0  0  0999 V2000
  134.8250  135.6910  154.4950 C   0  0  0  0  0  0  0  0  0  0  0  0
  134.0230  136.6230  154.3290 O   0  0  0  0  0  0  0  0  0  0  0  0
  135.9830  135.8350  155.2190 N   0  0  0  0  0  0  0  0  0  0  0  0
  136.5900  135.0650  155.3050 H   0  0  0  0  0  0  0  0  0  0  0  0
  134.5900  134.3130  153.8840 C   0  0  0  0  0  2  0  0  0  0  0  0
  135.3450  134.1130  152.6820 O   0  0  0  0  0  0  0  0  0  0  0  0
  134.6750  134.4340  151.5410 C   0  0  0  0  0  0  0  0  0  0  0  0
  134.8250  135.4780  150.9220 O   0  0  0  0  0  0  0  0  0  0  0  0
  133.7580  133.3140  151.1140 C   0  0  0  0  0  2  0  0  0  0  0  0
  132.6200  133.8170  150.2200 C   0  0  0  0  0  2  0  0  0  0  0  0
  132.8470  133.5200  148.7350 C   0  0  0  0  0  2  0  0  0  0  0  0
  133.9460  132.4730  148.5500 C   0  0  0  0  0  2  0  0  0  0  0  0
  135.4700  134.3080  147.7510 C   0  0  0  0  0  1  0  0  0  0  0  0
  134.9620  132.8980  147.4910 C   0  0  0  0  0  2  0  0  0  0  0  0
  136.3320  137.0800  155.8540 C   0  0  0  0  0  2  0  0  0  0  0  0
  137.8050  137.3990  155.7430 C   0  0  0  0  0  0  0  0  0  0  0  0
  138.6720  137.1610  156.8180 C   0  0  0  0  0  3  0  0  0  0  0  0
  140.0410  137.4280  156.7050 C   0  0  0  0  0  3  0  0  0  0  0  0
  140.5640  137.9360  155.5130 C   0  0  0  0  0  0  0  0  0  0  0  0
  139.7180  138.2120  154.4350 C   0  0  0  0  0  0  0  0  0  0  0  0
  138.3420  137.9500  154.5690 C   0  0  0  0  0  3  0  0  0  0  0  0
  141.9130  138.1520  155.4390 O   0  0  0  0  0  0  0  0  0  0  0  0
  142.2880  138.5190  154.6630 H   0  0  0  0  0  0  0  0  0  0  0  0
  140.0560  138.7190  153.2060 O   0  0  0  0  0  0  0  0  0  0  0  0
  139.5000  138.0890  152.0590 C   0  0  0  0  0  1  0  0  0  0  0  0
  1  3  1  0  0  0  0
  2  1  2  0  0  0  0
  3  4  1  0  0  0  0
  3 15  1  0  0  0  0
  5  1  1  0  0  0  0
  6  5  1  0  0  0  0
  7  6  1  0  0  0  0
  8  7  2  0  0  0  0
  9  7  1  0  0  0  0
 10  9  1  0  0  0  0
 11 10  1  0  0  0  0
 12 11  1  0  0  0  0
 14 13  1  0  0  0  0
 14 12  1  0  0  0  0
 16 15  1  0  0  0  0
 16 17  1  0  0  0  0
 18 17  2  0  0  0  0
 19 18  1  0  0  0  0
 20 21  1  0  0  0  0
 20 19  2  0  0  0  0
 21 16  2  0  0  0  0
 22 19  1  0  0  0  0
 23 22  1  0  0  0  0
 24 20  1  0  0  0  0
 25 24  1  0  0  0  0
M  END
>  <MODEL>
2

>  <REMARK>
 VINA RESULT:    -6.072      5.389     10.785
 INTER + INTRA:         -11.081
 INTER:                 -10.152
 INTRA:                  -0.928
 UNBOUND:                -0.926
  Name = CHEMBL4226124
  14 active torsions:
  status: ('A' for Active; 'I' for Inactive)
    1  A    between atoms: C_1  and  C_2
    2  A    between atoms: C_2  and  C_3
    3  A    between atoms: C_3  and  C_4
    4  A    between atoms: C_4  and  C_5
    5  A    between atoms: C_5  and  C_6
    6  A    between atoms: C_6  and  C_7
    7  A    between atoms: C_7  and  O_9
    8  A    between atoms: O_9  and  C_10
    9  A    between atoms: C_10  and  C_11
   10  A    between atoms: N_13  and  C_14
   11  A    between atoms: C_14  and  C_15
   12  A    between atoms: C_18  and  O_19
   13  A    between atoms: C_20  and  O_21
   14  A    between atoms: O_21  and  C_22
                            x       y       z     vdW  Elec       q    Type
                         _______ _______ _______ _____ _____    ______ ____

>  <TORSDO>
F 12

>  <SCORE>
-6.072

>  <RMSD_LB>
5.389

>  <RMSD_UB>
10.785

$$$$
CHEMBL4226124
 OpenBabel10172500093D

 25 25  0  0  0  0  0  0  0  0999 V2000
  134.8690  135.9000  145.3000 C   0  0  0  0  0  0  0  0  0  0  0  0
  135.6680  136.6500  145.8810 O   0  0  0  0  0  0  0  0  0  0  0  0
  133.5700  135.7420  145.7160 N   0  0  0  0  0  0  0  0  0  0  0  0
  132.9840  135.1220  145.2250 H   0  0  0  0  0  0  0  0  0  0  0  0
  135.2820  135.0760  144.0840 C   0  0  0  0  0  2  0  0  0  0  0  0
  136.1270  133.9730  144.4330 O   0  0  0  0  0  0  0  0  0  0  0  0
  135.4680  132.9130  144.9760 C   0  0  0  0  0  0  0  0  0  0  0  0
  134.6920  132.1930  144.3620 O   0  0  0  0  0  0  0  0  0  0  0  0
  135.8530  132.7120  146.4210 C   0  0  0  0  0  2  0  0  0  0  0  0
  137.3350  133.0140  146.6650 C   0  0  0  0  0  2  0  0  0  0  0  0
  137.5600  134.2590  147.5270 C   0  0  0  0  0  2  0  0  0  0  0  0
  136.5250  134.3400  148.6490 C   0  0  0  0  0  2  0  0  0  0  0  0
  136.9830  136.7660  149.1320 C   0  0  0  0  0  1  0  0  0  0  0  0
  136.9210  135.3620  149.7140 C   0  0  0  0  0  2  0  0  0  0  0  0
  133.0430  136.4590  146.8490 C   0  0  0  0  0  2  0  0  0  0  0  0
  133.0350  135.6290  148.1120 C   0  0  0  0  0  0  0  0  0  0  0  0
  132.8320  134.2440  148.0570 C   0  0  0  0  0  3  0  0  0  0  0  0
  132.8550  133.4710  149.2230 C   0  0  0  0  0  3  0  0  0  0  0  0
  133.0820  134.0740  150.4640 C   0  0  0  0  0  0  0  0  0  0  0  0
  133.2570  135.4580  150.5520 C   0  0  0  0  0  0  0  0  0  0  0  0
  133.2190  136.2220  149.3720 C   0  0  0  0  0  3  0  0  0  0  0  0
  133.1260  133.2730  151.5730 O   0  0  0  0  0  0  0  0  0  0  0  0
  133.8570  133.3200  152.1570 H   0  0  0  0  0  0  0  0  0  0  0  0
  133.4770  136.2100  151.6780 O   0  0  0  0  0  0  0  0  0  0  0  0
  134.6510  135.9390  152.4310 C   0  0  0  0  0  1  0  0  0  0  0  0
  1  3  1  0  0  0  0
  1  2  2  0  0  0  0
  3 15  1  0  0  0  0
  4  3  1  0  0  0  0
  5  6  1  0  0  0  0
  5  1  1  0  0  0  0
  6  7  1  0  0  0  0
  7  9  1  0  0  0  0
  8  7  2  0  0  0  0
  9 10  1  0  0  0  0
 10 11  1  0  0  0  0
 11 12  1  0  0  0  0
 12 14  1  0  0  0  0
 13 14  1  0  0  0  0
 15 16  1  0  0  0  0
 16 21  1  0  0  0  0
 17 16  2  0  0  0  0
 17 18  1  0  0  0  0
 18 19  2  0  0  0  0
 19 20  1  0  0  0  0
 19 22  1  0  0  0  0
 20 24  1  0  0  0  0
 21 20  2  0  0  0  0
 22 23  1  0  0  0  0
 24 25  1  0  0  0  0
M  END
>  <MODEL>
3

>  <REMARK>
 VINA RESULT:    -5.935      9.717     11.991
 INTER + INTRA:         -10.851
 INTER:                  -8.932
 INTRA:                  -1.918
 UNBOUND:                -0.926
  Name = CHEMBL4226124
  14 active torsions:
  status: ('A' for Active; 'I' for Inactive)
    1  A    between atoms: C_1  and  C_2
    2  A    between atoms: C_2  and  C_3
    3  A    between atoms: C_3  and  C_4
    4  A    between atoms: C_4  and  C_5
    5  A    between atoms: C_5  and  C_6
    6  A    between atoms: C_6  and  C_7
    7  A    between atoms: C_7  and  O_9
    8  A    between atoms: O_9  and  C_10
    9  A    between atoms: C_10  and  C_11
   10  A    between atoms: N_13  and  C_14
   11  A    between atoms: C_14  and  C_15
   12  A    between atoms: C_18  and  O_19
   13  A    between atoms: C_20  and  O_21
   14  A    between atoms: O_21  and  C_22
                            x       y       z     vdW  Elec       q    Type
                         _______ _______ _______ _____ _____    ______ ____

>  <TORSDO>
F 12

>  <SCORE>
-5.935

>  <RMSD_LB>
9.717

>  <RMSD_UB>
11.991

$$$$
CHEMBL4226124
 OpenBabel10172500093D

 25 25  0  0  0  0  0  0  0  0999 V2000
  147.4740  138.7980  154.5770 C   0  0  0  0  0  0  0  0  0  0  0  0
  147.0910  138.6130  155.7430 O   0  0  0  0  0  0  0  0  0  0  0  0
  147.0490  138.0200  153.5290 N   0  0  0  0  0  0  0  0  0  0  0  0
  147.3970  138.2020  152.6270 H   0  0  0  0  0  0  0  0  0  0  0  0
  148.4700  139.8990  154.2250 C   0  0  0  0  0  2  0  0  0  0  0  0
  148.0470  140.6780  153.0990 O   0  0  0  0  0  0  0  0  0  0  0  0
  147.1690  141.6720  153.4060 C   0  0  0  0  0  0  0  0  0  0  0  0
  147.1470  142.2720  154.4730 O   0  0  0  0  0  0  0  0  0  0  0  0
  146.2550  141.9720  152.2430 C   0  0  0  0  0  2  0  0  0  0  0  0
  145.1610  140.9110  152.0880 C   0  0  0  0  0  2  0  0  0  0  0  0
  145.0760  140.3390  150.6690 C   0  0  0  0  0  2  0  0  0  0  0  0
  146.3370  139.5460  150.3240 C   0  0  0  0  0  2  0  0  0  0  0  0
  146.1740  140.6560  148.0730 C   0  0  0  0  0  1  0  0  0  0  0  0
  146.5000  139.3700  148.8150 C   0  0  0  0  0  2  0  0  0  0  0  0
  146.1080  136.9440  153.7150 C   0  0  0  0  0  2  0  0  0  0  0  0
  144.7220  137.2910  153.2240 C   0  0  0  0  0  0  0  0  0  0  0  0
  144.3010  136.9120  151.9410 C   0  0  0  0  0  3  0  0  0  0  0  0
  143.0070  137.2070  151.4970 C   0  0  0  0  0  3  0  0  0  0  0  0
  142.1130  137.8850  152.3310 C   0  0  0  0  0  0  0  0  0  0  0  0
  142.5150  138.3020  153.6030 C   0  0  0  0  0  0  0  0  0  0  0  0
  143.8240  138.0090  154.0300 C   0  0  0  0  0  3  0  0  0  0  0  0
  140.8490  138.1240  151.8640 O   0  0  0  0  0  0  0  0  0  0  0  0
  140.2570  138.6520  152.3630 H   0  0  0  0  0  0  0  0  0  0  0  0
  141.7790  138.9820  154.5390 O   0  0  0  0  0  0  0  0  0  0  0  0
  140.9890  138.2150  155.4380 C   0  0  0  0  0  1  0  0  0  0  0  0
  1  2  2  0  0  0  0
  3 15  1  0  0  0  0
  3  1  1  0  0  0  0
  4  3  1  0  0  0  0
  5  1  1  0  0  0  0
  6  7  1  0  0  0  0
  6  5  1  0  0  0  0
  7  8  2  0  0  0  0
  9  7  1  0  0  0  0
 10  9  1  0  0  0  0
 11 10  1  0  0  0  0
 12 11  1  0  0  0  0
 13 14  1  0  0  0  0
 14 12  1  0  0  0  0
 16 15  1  0  0  0  0
 16 21  1  0  0  0  0
 17 16  2  0  0  0  0
 18 17  1  0  0  0  0
 18 19  2  0  0  0  0
 19 20  1  0  0  0  0
 20 21  2  0  0  0  0
 20 24  1  0  0  0  0
 22 19  1  0  0  0  0
 22 23  1  0  0  0  0
 24 25  1  0  0  0  0
M  END
>  <MODEL>
4

>  <REMARK>
 VINA RESULT:    -5.732      2.304      3.522
 INTER + INTRA:         -10.513
 INTER:                  -8.480
 INTRA:                  -2.032
 UNBOUND:                -0.926
  Name = CHEMBL4226124
  14 active torsions:
  status: ('A' for Active; 'I' for Inactive)
    1  A    between atoms: C_1  and  C_2
    2  A    between atoms: C_2  and  C_3
    3  A    between atoms: C_3  and  C_4
    4  A    between atoms: C_4  and  C_5
    5  A    between atoms: C_5  and  C_6
    6  A    between atoms: C_6  and  C_7
    7  A    between atoms: C_7  and  O_9
    8  A    between atoms: O_9  and  C_10
    9  A    between atoms: C_10  and  C_11
   10  A    between atoms: N_13  and  C_14
   11  A    between atoms: C_14  and  C_15
   12  A    between atoms: C_18  and  O_19
   13  A    between atoms: C_20  and  O_21
   14  A    between atoms: O_21  and  C_22
                            x       y       z     vdW  Elec       q    Type
                         _______ _______ _______ _____ _____    ______ ____

>  <TORSDO>
F 12

>  <SCORE>
-5.732

>  <RMSD_LB>
2.304

>  <RMSD_UB>
3.522

$$$$
CHEMBL4226124
 OpenBabel10172500093D

 25 25  0  0  0  0  0  0  0  0999 V2000
  137.0060  135.2660  149.9610 C   0  0  0  0  0  0  0  0  0  0  0  0
  136.3300  134.3690  150.4870 O   0  0  0  0  0  0  0  0  0  0  0  0
  137.3350  136.4240  150.6200 N   0  0  0  0  0  0  0  0  0  0  0  0
  137.8620  137.1090  150.1480 H   0  0  0  0  0  0  0  0  0  0  0  0
  137.5060  135.1540  148.5230 C   0  0  0  0  0  2  0  0  0  0  0  0
  136.4700  134.7630  147.6140 O   0  0  0  0  0  0  0  0  0  0  0  0
  136.6240  133.5140  147.0960 C   0  0  0  0  0  0  0  0  0  0  0  0
  137.6840  132.9040  147.0630 O   0  0  0  0  0  0  0  0  0  0  0  0
  135.3070  132.9590  146.6090 C   0  0  0  0  0  2  0  0  0  0  0  0
  134.1180  133.5680  147.3590 C   0  0  0  0  0  2  0  0  0  0  0  0
  133.7890  132.8320  148.6610 C   0  0  0  0  0  2  0  0  0  0  0  0
  132.8090  133.6400  149.5110 C   0  0  0  0  0  2  0  0  0  0  0  0
  132.9700  135.8010  150.7880 C   0  0  0  0  0  1  0  0  0  0  0  0
  133.0860  135.1400  149.4230 C   0  0  0  0  0  2  0  0  0  0  0  0
  136.9310  136.6640  151.9820 C   0  0  0  0  0  2  0  0  0  0  0  0
  137.9600  137.4450  152.7670 C   0  0  0  0  0  0  0  0  0  0  0  0
  139.1470  137.8770  152.1590 C   0  0  0  0  0  3  0  0  0  0  0  0
  140.0860  138.6260  152.8780 C   0  0  0  0  0  3  0  0  0  0  0  0
  139.8500  138.9550  154.2150 C   0  0  0  0  0  0  0  0  0  0  0  0
  138.6900  138.5110  154.8560 C   0  0  0  0  0  0  0  0  0  0  0  0
  137.7620  137.7480  154.1230 C   0  0  0  0  0  3  0  0  0  0  0  0
  140.7830  139.7150  154.8670 O   0  0  0  0  0  0  0  0  0  0  0  0
  140.5710  140.5860  155.1400 H   0  0  0  0  0  0  0  0  0  0  0  0
  138.3070  138.7300  156.1540 O   0  0  0  0  0  0  0  0  0  0  0  0
  137.3110  137.8740  156.6990 C   0  0  0  0  0  1  0  0  0  0  0  0
  1  2  2  0  0  0  0
  1  3  1  0  0  0  0
  3 15  1  0  0  0  0
  4  3  1  0  0  0  0
  5  1  1  0  0  0  0
  6  5  1  0  0  0  0
  7  6  1  0  0  0  0
  8  7  2  0  0  0  0
  9  7  1  0  0  0  0
  9 10  1  0  0  0  0
 10 11  1  0  0  0  0
 11 12  1  0  0  0  0
 14 12  1  0  0  0  0
 14 13  1  0  0  0  0
 15 16  1  0  0  0  0
 16 21  1  0  0  0  0
 17 16  2  0  0  0  0
 17 18  1  0  0  0  0
 18 19  2  0  0  0  0
 19 20  1  0  0  0  0
 19 22  1  0  0  0  0
 20 24  1  0  0  0  0
 21 20  2  0  0  0  0
 22 23  1  0  0  0  0
 24 25  1  0  0  0  0
M  END
>  <MODEL>
5

>  <REMARK>
 VINA RESULT:    -5.707      5.422     10.534
 INTER + INTRA:         -10.471
 INTER:                  -9.508
 INTRA:                  -0.963
 UNBOUND:                -0.926
  Name = CHEMBL4226124
  14 active torsions:
  status: ('A' for Active; 'I' for Inactive)
    1  A    between atoms: C_1  and  C_2
    2  A    between atoms: C_2  and  C_3
    3  A    between atoms: C_3  and  C_4
    4  A    between atoms: C_4  and  C_5
    5  A    between atoms: C_5  and  C_6
    6  A    between atoms: C_6  and  C_7
    7  A    between atoms: C_7  and  O_9
    8  A    between atoms: O_9  and  C_10
    9  A    between atoms: C_10  and  C_11
   10  A    between atoms: N_13  and  C_14
   11  A    between atoms: C_14  and  C_15
   12  A    between atoms: C_18  and  O_19
   13  A    between atoms: C_20  and  O_21
   14  A    between atoms: O_21  and  C_22
                            x       y       z     vdW  Elec       q    Type
                         _______ _______ _______ _____ _____    ______ ____

>  <TORSDO>
F 12

>  <SCORE>
-5.707

>  <RMSD_LB>
5.422

>  <RMSD_UB>
10.534

$$$$
CHEMBL4226124
 OpenBabel10172500093D

 25 25  0  0  0  0  0  0  0  0999 V2000
  143.5480  140.0180  149.2810 C   0  0  0  0  0  0  0  0  0  0  0  0
  142.4680  140.3800  149.7740 O   0  0  0  0  0  0  0  0  0  0  0  0
  144.7520  140.5490  149.6700 N   0  0  0  0  0  0  0  0  0  0  0  0
  145.5760  140.2340  149.2350 H   0  0  0  0  0  0  0  0  0  0  0  0
  143.6120  138.9610  148.1820 C   0  0  0  0  0  2  0  0  0  0  0  0
  142.3780  138.2490  148.0360 O   0  0  0  0  0  0  0  0  0  0  0  0
  142.4570  136.9240  148.3380 C   0  0  0  0  0  0  0  0  0  0  0  0
  143.3000  136.1610  147.8870 O   0  0  0  0  0  0  0  0  0  0  0  0
  141.3990  136.5290  149.3390 C   0  0  0  0  0  2  0  0  0  0  0  0
  141.7460  137.0010  150.7550 C   0  0  0  0  0  2  0  0  0  0  0  0
  140.5150  137.4050  151.5710 C   0  0  0  0  0  2  0  0  0  0  0  0
  140.9210  138.1980  152.8140 C   0  0  0  0  0  2  0  0  0  0  0  0
  143.1460  139.1140  153.5480 C   0  0  0  0  0  1  0  0  0  0  0  0
  142.3400  137.8560  153.2660 C   0  0  0  0  0  2  0  0  0  0  0  0
  144.8410  141.5540  150.7000 C   0  0  0  0  0  2  0  0  0  0  0  0
  146.1580  141.5170  151.4380 C   0  0  0  0  0  0  0  0  0  0  0  0
  147.3210  142.0390  150.8550 C   0  0  0  0  0  3  0  0  0  0  0  0
  148.5350  142.0310  151.5520 C   0  0  0  0  0  3  0  0  0  0  0  0
  148.6040  141.5020  152.8430 C   0  0  0  0  0  0  0  0  0  0  0  0
  147.4670  140.9470  153.4380 C   0  0  0  0  0  0  0  0  0  0  0  0
  146.2570  140.9510  152.7190 C   0  0  0  0  0  3  0  0  0  0  0  0
  149.8050  141.5440  153.4960 O   0  0  0  0  0  0  0  0  0  0  0  0
  149.9780  140.9520  154.2010 H   0  0  0  0  0  0  0  0  0  0  0  0
  147.3570  140.3790  154.6810 O   0  0  0  0  0  0  0  0  0  0  0  0
  147.5940  138.9810  154.7880 C   0  0  0  0  0  1  0  0  0  0  0  0
  1  3  1  0  0  0  0
  1  2  2  0  0  0  0
  3 15  1  0  0  0  0
  4  3  1  0  0  0  0
  5  1  1  0  0  0  0
  6  5  1  0  0  0  0
  6  7  1  0  0  0  0
  7  9  1  0  0  0  0
  8  7  2  0  0  0  0
  9 10  1  0  0  0  0
 10 11  1  0  0  0  0
 11 12  1  0  0  0  0
 12 14  1  0  0  0  0
 14 13  1  0  0  0  0
 15 16  1  0  0  0  0
 16 21  1  0  0  0  0
 17 16  2  0  0  0  0
 17 18  1  0  0  0  0
 18 19  2  0  0  0  0
 19 20  1  0  0  0  0
 19 22  1  0  0  0  0
 20 24  1  0  0  0  0
 21 20  2  0  0  0  0
 22 23  1  0  0  0  0
 24 25  1  0  0  0  0
M  END
>  <MODEL>
6

>  <REMARK>
 VINA RESULT:    -5.662      3.282      8.087
 INTER + INTRA:         -10.395
 INTER:                  -9.351
 INTRA:                  -1.044
 UNBOUND:                -0.926
  Name = CHEMBL4226124
  14 active torsions:
  status: ('A' for Active; 'I' for Inactive)
    1  A    between atoms: C_1  and  C_2
    2  A    between atoms: C_2  and  C_3
    3  A    between atoms: C_3  and  C_4
    4  A    between atoms: C_4  and  C_5
    5  A    between atoms: C_5  and  C_6
    6  A    between atoms: C_6  and  C_7
    7  A    between atoms: C_7  and  O_9
    8  A    between atoms: O_9  and  C_10
    9  A    between atoms: C_10  and  C_11
   10  A    between atoms: N_13  and  C_14
   11  A    between atoms: C_14  and  C_15
   12  A    between atoms: C_18  and  O_19
   13  A    between atoms: C_20  and  O_21
   14  A    between atoms: O_21  and  C_22
                            x       y       z     vdW  Elec       q    Type
                         _______ _______ _______ _____ _____    ______ ____

>  <TORSDO>
F 12

>  <SCORE>
-5.662

>  <RMSD_LB>
3.282

>  <RMSD_UB>
8.087

$$$$
CHEMBL4226124
 OpenBabel10172500093D

 25 25  0  0  0  0  0  0  0  0999 V2000
  145.5220  139.0280  148.3710 C   0  0  0  0  0  0  0  0  0  0  0  0
  146.5900  139.0020  147.7400 O   0  0  0  0  0  0  0  0  0  0  0  0
  145.1920  140.0550  149.2200 N   0  0  0  0  0  0  0  0  0  0  0  0
  144.3380  140.0170  149.7060 H   0  0  0  0  0  0  0  0  0  0  0  0
  144.4990  137.9000  148.2650 C   0  0  0  0  0  2  0  0  0  0  0  0
  144.4460  137.0980  149.4510 O   0  0  0  0  0  0  0  0  0  0  0  0
  143.2730  136.4300  149.6220 C   0  0  0  0  0  0  0  0  0  0  0  0
  143.1250  135.2310  149.4290 O   0  0  0  0  0  0  0  0  0  0  0  0
  142.1880  137.3510  150.1250 C   0  0  0  0  0  2  0  0  0  0  0  0
  141.9940  137.2320  151.6390 C   0  0  0  0  0  2  0  0  0  0  0  0
  141.9920  138.5870  152.3530 C   0  0  0  0  0  2  0  0  0  0  0  0
  143.2380  139.3960  151.9910 C   0  0  0  0  0  2  0  0  0  0  0  0
  144.3620  139.3320  154.2400 C   0  0  0  0  0  1  0  0  0  0  0  0
  144.4630  138.9310  152.7760 C   0  0  0  0  0  2  0  0  0  0  0  0
  146.0630  141.1870  149.4170 C   0  0  0  0  0  2  0  0  0  0  0  0
  146.5020  141.3420  150.8540 C   0  0  0  0  0  0  0  0  0  0  0  0
  145.9100  142.3050  151.6830 C   0  0  0  0  0  3  0  0  0  0  0  0
  146.2960  142.4280  153.0230 C   0  0  0  0  0  3  0  0  0  0  0  0
  147.2800  141.5890  153.5530 C   0  0  0  0  0  0  0  0  0  0  0  0
  147.9090  140.6410  152.7410 C   0  0  0  0  0  0  0  0  0  0  0  0
  147.5190  140.5380  151.3930 C   0  0  0  0  0  3  0  0  0  0  0  0
  147.6020  141.7270  154.8760 O   0  0  0  0  0  0  0  0  0  0  0  0
  148.1710  141.1060  155.2870 H   0  0  0  0  0  0  0  0  0  0  0  0
  148.8940  139.7530  153.0900 O   0  0  0  0  0  0  0  0  0  0  0  0
  148.5500  138.3740  153.1330 C   0  0  0  0  0  1  0  0  0  0  0  0
  1  3  1  0  0  0  0
  2  1  2  0  0  0  0
  3 15  1  0  0  0  0
  3  4  1  0  0  0  0
  5  1  1  0  0  0  0
  5  6  1  0  0  0  0
  6  7  1  0  0  0  0
  7  9  1  0  0  0  0
  8  7  2  0  0  0  0
  9 10  1  0  0  0  0
 10 11  1  0  0  0  0
 12 11  1  0  0  0  0
 12 14  1  0  0  0  0
 14 13  1  0  0  0  0
 15 16  1  0  0  0  0
 16 21  2  0  0  0  0
 16 17  1  0  0  0  0
 17 18  2  0  0  0  0
 18 19  1  0  0  0  0
 19 22  1  0  0  0  0
 20 24  1  0  0  0  0
 20 19  2  0  0  0  0
 21 20  1  0  0  0  0
 22 23  1  0  0  0  0
 24 25  1  0  0  0  0
M  END
>  <MODEL>
7

>  <REMARK>
 VINA RESULT:    -5.660      3.326      7.730
 INTER + INTRA:         -10.391
 INTER:                  -8.504
 INTRA:                  -1.887
 UNBOUND:                -0.926
  Name = CHEMBL4226124
  14 active torsions:
  status: ('A' for Active; 'I' for Inactive)
    1  A    between atoms: C_1  and  C_2
    2  A    between atoms: C_2  and  C_3
    3  A    between atoms: C_3  and  C_4
    4  A    between atoms: C_4  and  C_5
    5  A    between atoms: C_5  and  C_6
    6  A    between atoms: C_6  and  C_7
    7  A    between atoms: C_7  and  O_9
    8  A    between atoms: O_9  and  C_10
    9  A    between atoms: C_10  and  C_11
   10  A    between atoms: N_13  and  C_14
   11  A    between atoms: C_14  and  C_15
   12  A    between atoms: C_18  and  O_19
   13  A    between atoms: C_20  and  O_21
   14  A    between atoms: O_21  and  C_22
                            x       y       z     vdW  Elec       q    Type
                         _______ _______ _______ _____ _____    ______ ____

>  <TORSDO>
F 12

>  <SCORE>
-5.660

>  <RMSD_LB>
3.326

>  <RMSD_UB>
7.730

$$$$
CHEMBL4226124
 OpenBabel10172500093D

 25 25  0  0  0  0  0  0  0  0999 V2000
  144.0500  136.8150  150.0730 C   0  0  0  0  0  0  0  0  0  0  0  0
  143.9640  135.6040  149.8210 O   0  0  0  0  0  0  0  0  0  0  0  0
  142.9690  137.5670  150.4610 N   0  0  0  0  0  0  0  0  0  0  0  0
  143.0920  138.5270  150.6340 H   0  0  0  0  0  0  0  0  0  0  0  0
  145.3720  137.5690  149.9490 C   0  0  0  0  0  2  0  0  0  0  0  0
  146.2220  137.3700  151.0840 O   0  0  0  0  0  0  0  0  0  0  0  0
  146.0770  138.3060  152.0620 C   0  0  0  0  0  0  0  0  0  0  0  0
  145.1160  139.0570  152.1640 O   0  0  0  0  0  0  0  0  0  0  0  0
  147.2330  138.2670  153.0320 C   0  0  0  0  0  2  0  0  0  0  0  0
  147.5180  139.6450  153.6370 C   0  0  0  0  0  2  0  0  0  0  0  0
  148.3640  140.5370  152.7240 C   0  0  0  0  0  2  0  0  0  0  0  0
  147.7870  141.9520  152.6570 C   0  0  0  0  0  2  0  0  0  0  0  0
  145.6790  142.3930  151.3580 C   0  0  0  0  0  1  0  0  0  0  0  0
  147.1920  142.2560  151.2830 C   0  0  0  0  0  2  0  0  0  0  0  0
  141.6590  136.9860  150.6220 C   0  0  0  0  0  2  0  0  0  0  0  0
  140.9250  137.5270  151.8260 C   0  0  0  0  0  0  0  0  0  0  0  0
  139.5450  137.7630  151.7770 C   0  0  0  0  0  3  0  0  0  0  0  0
  138.8600  138.2360  152.9020 C   0  0  0  0  0  3  0  0  0  0  0  0
  139.5460  138.4780  154.0950 C   0  0  0  0  0  0  0  0  0  0  0  0
  140.9280  138.2800  154.1640 C   0  0  0  0  0  0  0  0  0  0  0  0
  141.6040  137.8170  153.0200 C   0  0  0  0  0  3  0  0  0  0  0  0
  138.8290  138.9100  155.1770 O   0  0  0  0  0  0  0  0  0  0  0  0
  138.2810  138.3120  155.6460 H   0  0  0  0  0  0  0  0  0  0  0  0
  141.7560  138.4770  155.2400 O   0  0  0  0  0  0  0  0  0  0  0  0
  142.4700  139.7050  155.3040 C   0  0  0  0  0  1  0  0  0  0  0  0
  1  3  1  0  0  0  0
  2  1  2  0  0  0  0
  3 15  1  0  0  0  0
  3  4  1  0  0  0  0
  5  1  1  0  0  0  0
  5  6  1  0  0  0  0
  6  7  1  0  0  0  0
  7  8  2  0  0  0  0
  7  9  1  0  0  0  0
  9 10  1  0  0  0  0
 11 10  1  0  0  0  0
 12 11  1  0  0  0  0
 14 13  1  0  0  0  0
 14 12  1  0  0  0  0
 15 16  1  0  0  0  0
 16 21  1  0  0  0  0
 17 16  2  0  0  0  0
 17 18  1  0  0  0  0
 18 19  2  0  0  0  0
 19 20  1  0  0  0  0
 19 22  1  0  0  0  0
 20 24  1  0  0  0  0
 21 20  2  0  0  0  0
 22 23  1  0  0  0  0
 24 25  1  0  0  0  0
M  END
>  <MODEL>
8

>  <REMARK>
 VINA RESULT:    -5.564      2.246      3.391
 INTER + INTRA:         -10.231
 INTER:                  -9.106
 INTRA:                  -1.125
 UNBOUND:                -0.926
  Name = CHEMBL4226124
  14 active torsions:
  status: ('A' for Active; 'I' for Inactive)
    1  A    between atoms: C_1  and  C_2
    2  A    between atoms: C_2  and  C_3
    3  A    between atoms: C_3  and  C_4
    4  A    between atoms: C_4  and  C_5
    5  A    between atoms: C_5  and  C_6
    6  A    between atoms: C_6  and  C_7
    7  A    between atoms: C_7  and  O_9
    8  A    between atoms: O_9  and  C_10
    9  A    between atoms: C_10  and  C_11
   10  A    between atoms: N_13  and  C_14
   11  A    between atoms: C_14  and  C_15
   12  A    between atoms: C_18  and  O_19
   13  A    between atoms: C_20  and  O_21
   14  A    between atoms: O_21  and  C_22
                            x       y       z     vdW  Elec       q    Type
                         _______ _______ _______ _____ _____    ______ ____

>  <TORSDO>
F 12

>  <SCORE>
-5.564

>  <RMSD_LB>
2.246

>  <RMSD_UB>
3.391

$$$$
CHEMBL4226124
 OpenBabel10172500093D

 25 25  0  0  0  0  0  0  0  0999 V2000
  134.2770  134.9260  152.5490 C   0  0  0  0  0  0  0  0  0  0  0  0
  135.1930  134.1700  152.1900 O   0  0  0  0  0  0  0  0  0  0  0  0
  133.9480  135.1120  153.8690 N   0  0  0  0  0  0  0  0  0  0  0  0
  133.2030  135.7130  154.0950 H   0  0  0  0  0  0  0  0  0  0  0  0
  133.4290  135.6940  151.5390 C   0  0  0  0  0  2  0  0  0  0  0  0
  132.4260  134.8720  150.9310 O   0  0  0  0  0  0  0  0  0  0  0  0
  132.6980  134.5180  149.6450 C   0  0  0  0  0  0  0  0  0  0  0  0
  132.3600  133.4590  149.1320 O   0  0  0  0  0  0  0  0  0  0  0  0
  133.4300  135.6200  148.9180 C   0  0  0  0  0  2  0  0  0  0  0  0
  134.2300  135.0850  147.7260 C   0  0  0  0  0  2  0  0  0  0  0  0
  135.6630  135.6220  147.6760 C   0  0  0  0  0  2  0  0  0  0  0  0
  136.1770  135.9360  149.0820 C   0  0  0  0  0  2  0  0  0  0  0  0
  137.9780  134.3830  148.2610 C   0  0  0  0  0  1  0  0  0  0  0  0
  137.3300  135.0170  149.4820 C   0  0  0  0  0  2  0  0  0  0  0  0
  134.6650  134.4510  154.9300 C   0  0  0  0  0  2  0  0  0  0  0  0
  135.4820  135.4090  155.7660 C   0  0  0  0  0  0  0  0  0  0  0  0
  136.2610  136.4030  155.1600 C   0  0  0  0  0  3  0  0  0  0  0  0
  136.9940  137.3090  155.9350 C   0  0  0  0  0  3  0  0  0  0  0  0
  136.9570  137.2340  157.3300 C   0  0  0  0  0  0  0  0  0  0  0  0
  136.2130  136.2330  157.9620 C   0  0  0  0  0  0  0  0  0  0  0  0
  135.4920  135.3230  157.1680 C   0  0  0  0  0  3  0  0  0  0  0  0
  137.6660  138.1600  158.0460 O   0  0  0  0  0  0  0  0  0  0  0  0
  138.0520  137.9240  158.8660 H   0  0  0  0  0  0  0  0  0  0  0  0
  136.0750  136.0070  159.3070 O   0  0  0  0  0  0  0  0  0  0  0  0
  136.5540  134.7700  159.8180 C   0  0  0  0  0  1  0  0  0  0  0  0
  1  3  1  0  0  0  0
  2  1  2  0  0  0  0
  3  4  1  0  0  0  0
  3 15  1  0  0  0  0
  5  1  1  0  0  0  0
  6  5  1  0  0  0  0
  7  6  1  0  0  0  0
  8  7  2  0  0  0  0
  9  7  1  0  0  0  0
 10  9  1  0  0  0  0
 11 10  1  0  0  0  0
 11 12  1  0  0  0  0
 12 14  1  0  0  0  0
 13 14  1  0  0  0  0
 15 16  1  0  0  0  0
 16 21  1  0  0  0  0
 17 16  2  0  0  0  0
 17 18  1  0  0  0  0
 18 19  2  0  0  0  0
 19 20  1  0  0  0  0
 19 22  1  0  0  0  0
 20 24  1  0  0  0  0
 21 20  2  0  0  0  0
 22 23  1  0  0  0  0
 24 25  1  0  0  0  0
M  END
>  <MODEL>
9

>  <REMARK>
 VINA RESULT:    -5.557      8.381     11.047
 INTER + INTRA:         -10.220
 INTER:                  -9.293
 INTRA:                  -0.926
 UNBOUND:                -0.926
  Name = CHEMBL4226124
  14 active torsions:
  status: ('A' for Active; 'I' for Inactive)
    1  A    between atoms: C_1  and  C_2
    2  A    between atoms: C_2  and  C_3
    3  A    between atoms: C_3  and  C_4
    4  A    between atoms: C_4  and  C_5
    5  A    between atoms: C_5  and  C_6
    6  A    between atoms: C_6  and  C_7
    7  A    between atoms: C_7  and  O_9
    8  A    between atoms: O_9  and  C_10
    9  A    between atoms: C_10  and  C_11
   10  A    between atoms: N_13  and  C_14
   11  A    between atoms: C_14  and  C_15
   12  A    between atoms: C_18  and  O_19
   13  A    between atoms: C_20  and  O_21
   14  A    between atoms: O_21  and  C_22
                            x       y       z     vdW  Elec       q    Type
                         _______ _______ _______ _____ _____    ______ ____

>  <TORSDO>
F 12

>  <SCORE>
-5.557

>  <RMSD_LB>
8.381

>  <RMSD_UB>
11.047

$$$$
