CHEMBL80320
 OpenBabel10162523583D

 21 21  0  0  0  0  0  0  0  0999 V2000
  145.5640  140.4040  149.1030 C   0  0  0  0  0  0  0  0  0  0  0  0
  146.5780  139.7380  148.9330 O   0  0  0  0  0  0  0  0  0  0  0  0
  145.5780  141.7130  149.5240 N   0  0  0  0  0  0  0  0  0  0  0  0
  144.7240  142.1920  149.6180 H   0  0  0  0  0  0  0  0  0  0  0  0
  144.1870  139.8430  148.8300 C   0  0  0  0  0  2  0  0  0  0  0  0
  143.1850  140.2750  149.8940 C   0  0  0  0  0  2  0  0  0  0  0  0
  141.8500  139.5580  149.7320 C   0  0  0  0  0  2  0  0  0  0  0  0
  141.5020  138.7950  151.0070 C   0  0  0  0  0  2  0  0  0  0  0  0
  141.6410  137.2900  150.8050 C   0  0  0  0  0  2  0  0  0  0  0  0
  143.0920  136.8530  150.9830 C   0  0  0  0  0  2  0  0  0  0  0  0
  142.4350  135.7940  148.8040 C   0  0  0  0  0  1  0  0  0  0  0  0
  143.5430  135.9630  149.8280 C   0  0  0  0  0  2  0  0  0  0  0  0
  146.8070  142.4060  149.8300 C   0  0  0  0  0  2  0  0  0  0  0  0
  147.2080  142.1970  151.2670 C   0  0  0  0  0  0  0  0  0  0  0  0
  148.5420  141.9110  151.5990 C   0  0  0  0  0  3  0  0  0  0  0  0
  148.9210  141.7490  152.9340 C   0  0  0  0  0  3  0  0  0  0  0  0
  147.9730  141.8590  153.9500 C   0  0  0  0  0  3  0  0  0  0  0  0
  146.6470  142.1200  153.6190 C   0  0  0  0  0  0  0  0  0  0  0  0
  146.2590  142.2810  152.2930 C   0  0  0  0  0  3  0  0  0  0  0  0
  145.6850  142.2370  154.5790 O   0  0  0  0  0  0  0  0  0  0  0  0
  145.1970  141.4840  154.8480 H   0  0  0  0  0  0  0  0  0  0  0  0
  1  3  1  0  0  0  0
  2  1  2  0  0  0  0
  3  4  1  0  0  0  0
  3 13  1  0  0  0  0
  5  1  1  0  0  0  0
  5  6  1  0  0  0  0
  7  6  1  0  0  0  0
  7  8  1  0  0  0  0
  9 10  1  0  0  0  0
  9  8  1  0  0  0  0
 11 12  1  0  0  0  0
 12 10  1  0  0  0  0
 13 14  1  0  0  0  0
 14 15  2  0  0  0  0
 14 19  1  0  0  0  0
 15 16  1  0  0  0  0
 16 17  2  0  0  0  0
 18 17  1  0  0  0  0
 18 20  1  0  0  0  0
 19 18  2  0  0  0  0
 20 21  1  0  0  0  0
M  END
>  <MODEL>
1

>  <REMARK>
 VINA RESULT:    -5.912      0.000      0.000
 INTER + INTRA:         -10.666
 INTER:                  -9.568
 INTRA:                  -1.098
 UNBOUND:                -1.470
  Name = CHEMBL80320
  11 active torsions:
  status: ('A' for Active; 'I' for Inactive)
    1  A    between atoms: C_1  and  C_2
    2  A    between atoms: C_2  and  C_3
    3  A    between atoms: C_3  and  C_4
    4  A    between atoms: C_4  and  C_5
    5  A    between atoms: C_5  and  C_6
    6  A    between atoms: C_6  and  C_7
    7  A    between atoms: C_7  and  C_8
    8  A    between atoms: C_8  and  C_9
    9  A    between atoms: N_11  and  C_12
   10  A    between atoms: C_12  and  C_13
   11  A    between atoms: C_17  and  O_18
                            x       y       z     vdW  Elec       q    Type
                         _______ _______ _______ _____ _____    ______ ____

>  <TORSDO>
F 10

>  <SCORE>
-5.912

>  <RMSD_LB>
0.000

>  <RMSD_UB>
0.000

$$$$
CHEMBL80320
 OpenBabel10162523583D

 21 21  0  0  0  0  0  0  0  0999 V2000
  145.5800  140.2420  149.1870 C   0  0  0  0  0  0  0  0  0  0  0  0
  146.6400  139.6420  149.0530 O   0  0  0  0  0  0  0  0  0  0  0  0
  145.4990  141.5680  149.5430 N   0  0  0  0  0  0  0  0  0  0  0  0
  144.6130  141.9900  149.6110 H   0  0  0  0  0  0  0  0  0  0  0  0
  144.2480  139.5720  148.9380 C   0  0  0  0  0  2  0  0  0  0  0  0
  143.1430  140.1920  149.7840 C   0  0  0  0  0  2  0  0  0  0  0  0
  142.2990  139.1260  150.4730 C   0  0  0  0  0  2  0  0  0  0  0  0
  142.8660  138.8140  151.8550 C   0  0  0  0  0  2  0  0  0  0  0  0
  142.1370  137.6400  152.4980 C   0  0  0  0  0  2  0  0  0  0  0  0
  140.6580  137.6510  152.1220 C   0  0  0  0  0  2  0  0  0  0  0  0
  138.4100  137.7660  153.2320 C   0  0  0  0  0  1  0  0  0  0  0  0
  139.8210  138.3250  153.2060 C   0  0  0  0  0  2  0  0  0  0  0  0
  146.6740  142.3600  149.8190 C   0  0  0  0  0  2  0  0  0  0  0  0
  147.1190  142.1990  151.2490 C   0  0  0  0  0  0  0  0  0  0  0  0
  148.4680  141.9610  151.5530 C   0  0  0  0  0  3  0  0  0  0  0  0
  148.8870  141.8420  152.8800 C   0  0  0  0  0  3  0  0  0  0  0  0
  147.9620  141.9490  153.9180 C   0  0  0  0  0  3  0  0  0  0  0  0
  146.6210  142.1620  153.6160 C   0  0  0  0  0  0  0  0  0  0  0  0
  146.1940  142.2800  152.2980 C   0  0  0  0  0  3  0  0  0  0  0  0
  145.6810  142.2750  154.5980 O   0  0  0  0  0  0  0  0  0  0  0  0
  145.0260  141.6110  154.6990 H   0  0  0  0  0  0  0  0  0  0  0  0
  1  3  1  0  0  0  0
  2  1  2  0  0  0  0
  3  4  1  0  0  0  0
  3 13  1  0  0  0  0
  5  1  1  0  0  0  0
  5  6  1  0  0  0  0
  6  7  1  0  0  0  0
  7  8  1  0  0  0  0
  8  9  1  0  0  0  0
 10  9  1  0  0  0  0
 10 12  1  0  0  0  0
 12 11  1  0  0  0  0
 13 14  1  0  0  0  0
 14 15  2  0  0  0  0
 14 19  1  0  0  0  0
 15 16  1  0  0  0  0
 16 17  2  0  0  0  0
 18 17  1  0  0  0  0
 18 20  1  0  0  0  0
 19 18  2  0  0  0  0
 20 21  1  0  0  0  0
M  END
>  <MODEL>
2

>  <REMARK>
 VINA RESULT:    -5.859      1.351      2.120
 INTER + INTRA:         -10.584
 INTER:                  -9.792
 INTRA:                  -0.792
 UNBOUND:                -1.470
  Name = CHEMBL80320
  11 active torsions:
  status: ('A' for Active; 'I' for Inactive)
    1  A    between atoms: C_1  and  C_2
    2  A    between atoms: C_2  and  C_3
    3  A    between atoms: C_3  and  C_4
    4  A    between atoms: C_4  and  C_5
    5  A    between atoms: C_5  and  C_6
    6  A    between atoms: C_6  and  C_7
    7  A    between atoms: C_7  and  C_8
    8  A    between atoms: C_8  and  C_9
    9  A    between atoms: N_11  and  C_12
   10  A    between atoms: C_12  and  C_13
   11  A    between atoms: C_17  and  O_18
                            x       y       z     vdW  Elec       q    Type
                         _______ _______ _______ _____ _____    ______ ____

>  <TORSDO>
F 10

>  <SCORE>
-5.859

>  <RMSD_LB>
1.351

>  <RMSD_UB>
2.120

$$$$
CHEMBL80320
 OpenBabel10162523583D

 21 21  0  0  0  0  0  0  0  0999 V2000
  144.0370  140.2620  150.6360 C   0  0  0  0  0  0  0  0  0  0  0  0
  144.2950  140.1940  149.4400 O   0  0  0  0  0  0  0  0  0  0  0  0
  144.5440  141.2330  151.4670 N   0  0  0  0  0  0  0  0  0  0  0  0
  144.2760  141.2390  152.4140 H   0  0  0  0  0  0  0  0  0  0  0  0
  143.0980  139.2850  151.3070 C   0  0  0  0  0  2  0  0  0  0  0  0
  143.3150  137.8640  150.8010 C   0  0  0  0  0  2  0  0  0  0  0  0
  144.3760  137.1350  151.6180 C   0  0  0  0  0  2  0  0  0  0  0  0
  144.0940  137.2910  153.1100 C   0  0  0  0  0  2  0  0  0  0  0  0
  145.3710  137.1500  153.9300 C   0  0  0  0  0  2  0  0  0  0  0  0
  146.1500  138.4620  153.9460 C   0  0  0  0  0  2  0  0  0  0  0  0
  148.3750  137.6390  154.7690 C   0  0  0  0  0  1  0  0  0  0  0  0
  147.6180  138.2330  153.5940 C   0  0  0  0  0  2  0  0  0  0  0  0
  145.4560  142.2470  150.9930 C   0  0  0  0  0  2  0  0  0  0  0  0
  146.7890  142.1510  151.6890 C   0  0  0  0  0  0  0  0  0  0  0  0
  147.9820  142.1770  150.9500 C   0  0  0  0  0  3  0  0  0  0  0  0
  149.2190  142.1200  151.5960 C   0  0  0  0  0  3  0  0  0  0  0  0
  149.2790  142.0250  152.9860 C   0  0  0  0  0  3  0  0  0  0  0  0
  148.0960  141.9770  153.7170 C   0  0  0  0  0  0  0  0  0  0  0  0
  146.8590  142.0310  153.0830 C   0  0  0  0  0  3  0  0  0  0  0  0
  148.1050  141.8860  155.0780 O   0  0  0  0  0  0  0  0  0  0  0  0
  147.5070  141.3100  155.5140 H   0  0  0  0  0  0  0  0  0  0  0  0
  1  5  1  0  0  0  0
  1  3  1  0  0  0  0
  2  1  2  0  0  0  0
  3  4  1  0  0  0  0
  6  5  1  0  0  0  0
  6  7  1  0  0  0  0
  7  8  1  0  0  0  0
  8  9  1  0  0  0  0
  9 10  1  0  0  0  0
 12 10  1  0  0  0  0
 12 11  1  0  0  0  0
 13  3  1  0  0  0  0
 13 14  1  0  0  0  0
 14 19  1  0  0  0  0
 15 16  1  0  0  0  0
 15 14  2  0  0  0  0
 16 17  2  0  0  0  0
 17 18  1  0  0  0  0
 18 20  1  0  0  0  0
 19 18  2  0  0  0  0
 20 21  1  0  0  0  0
M  END
>  <MODEL>
3

>  <REMARK>
 VINA RESULT:    -5.826      2.228      3.494
 INTER + INTRA:         -10.531
 INTER:                  -9.208
 INTRA:                  -1.323
 UNBOUND:                -1.470
  Name = CHEMBL80320
  11 active torsions:
  status: ('A' for Active; 'I' for Inactive)
    1  A    between atoms: C_1  and  C_2
    2  A    between atoms: C_2  and  C_3
    3  A    between atoms: C_3  and  C_4
    4  A    between atoms: C_4  and  C_5
    5  A    between atoms: C_5  and  C_6
    6  A    between atoms: C_6  and  C_7
    7  A    between atoms: C_7  and  C_8
    8  A    between atoms: C_8  and  C_9
    9  A    between atoms: N_11  and  C_12
   10  A    between atoms: C_12  and  C_13
   11  A    between atoms: C_17  and  O_18
                            x       y       z     vdW  Elec       q    Type
                         _______ _______ _______ _____ _____    ______ ____

>  <TORSDO>
F 10

>  <SCORE>
-5.826

>  <RMSD_LB>
2.228

>  <RMSD_UB>
3.494

$$$$
CHEMBL80320
 OpenBabel10162523583D

 21 21  0  0  0  0  0  0  0  0999 V2000
  146.2250  140.1710  148.9310 C   0  0  0  0  0  0  0  0  0  0  0  0
  145.5630  139.5880  148.0810 O   0  0  0  0  0  0  0  0  0  0  0  0
  146.8460  139.5340  149.9790 N   0  0  0  0  0  0  0  0  0  0  0  0
  147.3790  140.0650  150.6120 H   0  0  0  0  0  0  0  0  0  0  0  0
  146.4470  141.6670  148.8820 C   0  0  0  0  0  2  0  0  0  0  0  0
  146.9140  142.2080  150.2270 C   0  0  0  0  0  2  0  0  0  0  0  0
  145.7400  142.6640  151.0860 C   0  0  0  0  0  2  0  0  0  0  0  0
  145.6000  141.7650  152.3110 C   0  0  0  0  0  2  0  0  0  0  0  0
  146.5450  142.2010  153.4250 C   0  0  0  0  0  2  0  0  0  0  0  0
  147.1380  140.9880  154.1350 C   0  0  0  0  0  2  0  0  0  0  0  0
  149.2090  142.0600  153.2070 C   0  0  0  0  0  1  0  0  0  0  0  0
  148.6560  141.1060  154.2500 C   0  0  0  0  0  2  0  0  0  0  0  0
  146.7390  138.1070  150.1780 C   0  0  0  0  0  2  0  0  0  0  0  0
  146.7510  137.7580  151.6440 C   0  0  0  0  0  0  0  0  0  0  0  0
  147.9610  137.7090  152.3540 C   0  0  0  0  0  3  0  0  0  0  0  0
  147.9700  137.4170  153.7200 C   0  0  0  0  0  3  0  0  0  0  0  0
  146.7740  137.1600  154.3900 C   0  0  0  0  0  3  0  0  0  0  0  0
  145.5770  137.1870  153.6800 C   0  0  0  0  0  0  0  0  0  0  0  0
  145.5570  137.4750  152.3200 C   0  0  0  0  0  3  0  0  0  0  0  0
  144.3820  136.9440  154.2930 O   0  0  0  0  0  0  0  0  0  0  0  0
  144.2830  136.1920  154.8440 H   0  0  0  0  0  0  0  0  0  0  0  0
  1  3  1  0  0  0  0
  2  1  2  0  0  0  0
  3 13  1  0  0  0  0
  3  4  1  0  0  0  0
  5  1  1  0  0  0  0
  5  6  1  0  0  0  0
  6  7  1  0  0  0  0
  7  8  1  0  0  0  0
  8  9  1  0  0  0  0
  9 10  1  0  0  0  0
 10 12  1  0  0  0  0
 11 12  1  0  0  0  0
 13 14  1  0  0  0  0
 14 19  2  0  0  0  0
 14 15  1  0  0  0  0
 15 16  2  0  0  0  0
 16 17  1  0  0  0  0
 18 20  1  0  0  0  0
 18 17  2  0  0  0  0
 19 18  1  0  0  0  0
 20 21  1  0  0  0  0
M  END
>  <MODEL>
4

>  <REMARK>
 VINA RESULT:    -5.807      2.930      5.352
 INTER + INTRA:         -10.503
 INTER:                  -8.921
 INTRA:                  -1.582
 UNBOUND:                -1.470
  Name = CHEMBL80320
  11 active torsions:
  status: ('A' for Active; 'I' for Inactive)
    1  A    between atoms: C_1  and  C_2
    2  A    between atoms: C_2  and  C_3
    3  A    between atoms: C_3  and  C_4
    4  A    between atoms: C_4  and  C_5
    5  A    between atoms: C_5  and  C_6
    6  A    between atoms: C_6  and  C_7
    7  A    between atoms: C_7  and  C_8
    8  A    between atoms: C_8  and  C_9
    9  A    between atoms: N_11  and  C_12
   10  A    between atoms: C_12  and  C_13
   11  A    between atoms: C_17  and  O_18
                            x       y       z     vdW  Elec       q    Type
                         _______ _______ _______ _____ _____    ______ ____

>  <TORSDO>
F 10

>  <SCORE>
-5.807

>  <RMSD_LB>
2.930

>  <RMSD_UB>
5.352

$$$$
CHEMBL80320
 OpenBabel10162523583D

 21 21  0  0  0  0  0  0  0  0999 V2000
  145.2960  140.4620  149.1920 C   0  0  0  0  0  0  0  0  0  0  0  0
  144.2580  140.6970  149.7980 O   0  0  0  0  0  0  0  0  0  0  0  0
  146.3970  141.2840  149.2240 N   0  0  0  0  0  0  0  0  0  0  0  0
  147.2050  141.0200  148.7280 H   0  0  0  0  0  0  0  0  0  0  0  0
  145.4690  139.2070  148.3650 C   0  0  0  0  0  2  0  0  0  0  0  0
  145.5300  137.9630  149.2420 C   0  0  0  0  0  2  0  0  0  0  0  0
  146.9690  137.5670  149.5530 C   0  0  0  0  0  2  0  0  0  0  0  0
  147.1200  137.2490  151.0380 C   0  0  0  0  0  2  0  0  0  0  0  0
  147.1450  138.5230  151.8750 C   0  0  0  0  0  2  0  0  0  0  0  0
  145.8540  138.6680  152.6760 C   0  0  0  0  0  2  0  0  0  0  0  0
  146.0830  136.7030  154.2200 C   0  0  0  0  0  1  0  0  0  0  0  0
  146.0510  138.2170  154.1210 C   0  0  0  0  0  2  0  0  0  0  0  0
  146.4050  142.5240  149.9650 C   0  0  0  0  0  2  0  0  0  0  0  0
  146.8560  142.3080  151.3860 C   0  0  0  0  0  0  0  0  0  0  0  0
  145.9300  142.3470  152.4400 C   0  0  0  0  0  3  0  0  0  0  0  0
  146.3410  142.1150  153.7550 C   0  0  0  0  0  3  0  0  0  0  0  0
  147.6810  141.8520  154.0330 C   0  0  0  0  0  3  0  0  0  0  0  0
  148.6030  141.8360  152.9910 C   0  0  0  0  0  0  0  0  0  0  0  0
  148.2040  142.0670  151.6790 C   0  0  0  0  0  3  0  0  0  0  0  0
  149.9250  141.5810  153.2150 O   0  0  0  0  0  0  0  0  0  0  0  0
  150.5200  141.5240  152.4930 H   0  0  0  0  0  0  0  0  0  0  0  0
  1  3  1  0  0  0  0
  1  2  2  0  0  0  0
  3 13  1  0  0  0  0
  4  3  1  0  0  0  0
  5  1  1  0  0  0  0
  5  6  1  0  0  0  0
  6  7  1  0  0  0  0
  7  8  1  0  0  0  0
  8  9  1  0  0  0  0
  9 10  1  0  0  0  0
 10 12  1  0  0  0  0
 12 11  1  0  0  0  0
 13 14  1  0  0  0  0
 14 19  2  0  0  0  0
 14 15  1  0  0  0  0
 15 16  2  0  0  0  0
 16 17  1  0  0  0  0
 18 20  1  0  0  0  0
 18 17  2  0  0  0  0
 19 18  1  0  0  0  0
 21 20  1  0  0  0  0
M  END
>  <MODEL>
5

>  <REMARK>
 VINA RESULT:    -5.657      2.566      3.629
 INTER + INTRA:         -10.269
 INTER:                  -8.643
 INTRA:                  -1.626
 UNBOUND:                -1.470
  Name = CHEMBL80320
  11 active torsions:
  status: ('A' for Active; 'I' for Inactive)
    1  A    between atoms: C_1  and  C_2
    2  A    between atoms: C_2  and  C_3
    3  A    between atoms: C_3  and  C_4
    4  A    between atoms: C_4  and  C_5
    5  A    between atoms: C_5  and  C_6
    6  A    between atoms: C_6  and  C_7
    7  A    between atoms: C_7  and  C_8
    8  A    between atoms: C_8  and  C_9
    9  A    between atoms: N_11  and  C_12
   10  A    between atoms: C_12  and  C_13
   11  A    between atoms: C_17  and  O_18
                            x       y       z     vdW  Elec       q    Type
                         _______ _______ _______ _____ _____    ______ ____

>  <TORSDO>
F 10

>  <SCORE>
-5.657

>  <RMSD_LB>
2.566

>  <RMSD_UB>
3.629

$$$$
CHEMBL80320
 OpenBabel10162523583D

 21 21  0  0  0  0  0  0  0  0999 V2000
  146.3100  137.5060  151.9830 C   0  0  0  0  0  0  0  0  0  0  0  0
  146.5800  136.3250  151.7980 O   0  0  0  0  0  0  0  0  0  0  0  0
  145.0400  138.0200  151.8720 N   0  0  0  0  0  0  0  0  0  0  0  0
  144.8950  138.9760  152.0560 H   0  0  0  0  0  0  0  0  0  0  0  0
  147.3650  138.5110  152.3870 C   0  0  0  0  0  2  0  0  0  0  0  0
  146.7490  139.7250  153.0700 C   0  0  0  0  0  2  0  0  0  0  0  0
  147.8010  140.7810  153.3920 C   0  0  0  0  0  2  0  0  0  0  0  0
  147.5210  142.0620  152.6100 C   0  0  0  0  0  2  0  0  0  0  0  0
  146.0230  142.2900  152.4450 C   0  0  0  0  0  2  0  0  0  0  0  0
  145.6980  142.7360  151.0220 C   0  0  0  0  0  2  0  0  0  0  0  0
  146.3540  140.9990  149.3320 C   0  0  0  0  0  1  0  0  0  0  0  0
  146.7740  142.2730  150.0430 C   0  0  0  0  0  2  0  0  0  0  0  0
  143.9120  137.2010  151.4940 C   0  0  0  0  0  2  0  0  0  0  0  0
  142.6990  137.5270  152.3250 C   0  0  0  0  0  0  0  0  0  0  0  0
  141.4150  137.4820  151.7580 C   0  0  0  0  0  3  0  0  0  0  0  0
  140.2860  137.7540  152.5340 C   0  0  0  0  0  3  0  0  0  0  0  0
  140.4260  138.0840  153.8820 C   0  0  0  0  0  3  0  0  0  0  0  0
  141.7000  138.1510  154.4380 C   0  0  0  0  0  0  0  0  0  0  0  0
  142.8300  137.8840  153.6730 C   0  0  0  0  0  3  0  0  0  0  0  0
  141.8860  138.4670  155.7520 O   0  0  0  0  0  0  0  0  0  0  0  0
  141.8320  137.7990  156.4070 H   0  0  0  0  0  0  0  0  0  0  0  0
  1  5  1  0  0  0  0
  2  1  2  0  0  0  0
  3  1  1  0  0  0  0
  3  4  1  0  0  0  0
  5  6  1  0  0  0  0
  6  7  1  0  0  0  0
  8  7  1  0  0  0  0
  9  8  1  0  0  0  0
 10  9  1  0  0  0  0
 11 12  1  0  0  0  0
 12 10  1  0  0  0  0
 13  3  1  0  0  0  0
 13 14  1  0  0  0  0
 14 19  1  0  0  0  0
 15 14  2  0  0  0  0
 15 16  1  0  0  0  0
 16 17  2  0  0  0  0
 17 18  1  0  0  0  0
 18 20  1  0  0  0  0
 19 18  2  0  0  0  0
 20 21  1  0  0  0  0
M  END
>  <MODEL>
6

>  <REMARK>
 VINA RESULT:    -5.483      2.779      6.501
 INTER + INTRA:          -9.998
 INTER:                  -8.866
 INTRA:                  -1.132
 UNBOUND:                -1.470
  Name = CHEMBL80320
  11 active torsions:
  status: ('A' for Active; 'I' for Inactive)
    1  A    between atoms: C_1  and  C_2
    2  A    between atoms: C_2  and  C_3
    3  A    between atoms: C_3  and  C_4
    4  A    between atoms: C_4  and  C_5
    5  A    between atoms: C_5  and  C_6
    6  A    between atoms: C_6  and  C_7
    7  A    between atoms: C_7  and  C_8
    8  A    between atoms: C_8  and  C_9
    9  A    between atoms: N_11  and  C_12
   10  A    between atoms: C_12  and  C_13
   11  A    between atoms: C_17  and  O_18
                            x       y       z     vdW  Elec       q    Type
                         _______ _______ _______ _____ _____    ______ ____

>  <TORSDO>
F 10

>  <SCORE>
-5.483

>  <RMSD_LB>
2.779

>  <RMSD_UB>
6.501

$$$$
CHEMBL80320
 OpenBabel10162523583D

 21 21  0  0  0  0  0  0  0  0999 V2000
  134.6190  136.0820  146.6600 C   0  0  0  0  0  0  0  0  0  0  0  0
  133.4300  135.9970  146.3750 O   0  0  0  0  0  0  0  0  0  0  0  0
  135.6330  135.8170  145.7710 N   0  0  0  0  0  0  0  0  0  0  0  0
  136.5660  135.9260  146.0650 H   0  0  0  0  0  0  0  0  0  0  0  0
  135.0800  136.5220  148.0320 C   0  0  0  0  0  2  0  0  0  0  0  0
  133.9020  136.8690  148.9330 C   0  0  0  0  0  2  0  0  0  0  0  0
  133.9910  136.1480  150.2740 C   0  0  0  0  0  2  0  0  0  0  0  0
  132.7220  135.3370  150.5230 C   0  0  0  0  0  2  0  0  0  0  0  0
  132.9330  133.8660  150.1860 C   0  0  0  0  0  2  0  0  0  0  0  0
  132.4740  133.5680  148.7610 C   0  0  0  0  0  2  0  0  0  0  0  0
  134.8890  132.8850  148.7050 C   0  0  0  0  0  1  0  0  0  0  0  0
  133.5570  132.8270  147.9800 C   0  0  0  0  0  2  0  0  0  0  0  0
  135.3720  135.3840  144.4180 C   0  0  0  0  0  2  0  0  0  0  0  0
  135.9500  134.0170  144.1610 C   0  0  0  0  0  0  0  0  0  0  0  0
  136.6220  133.7430  142.9590 C   0  0  0  0  0  3  0  0  0  0  0  0
  137.1860  132.4860  142.7330 C   0  0  0  0  0  3  0  0  0  0  0  0
  137.0770  131.4850  143.6970 C   0  0  0  0  0  3  0  0  0  0  0  0
  136.3910  131.7490  144.8790 C   0  0  0  0  0  0  0  0  0  0  0  0
  135.8240  132.9980  145.1130 C   0  0  0  0  0  3  0  0  0  0  0  0
  136.2600  130.8020  145.8520 O   0  0  0  0  0  0  0  0  0  0  0  0
  136.8620  130.0840  145.8910 H   0  0  0  0  0  0  0  0  0  0  0  0
  1  5  1  0  0  0  0
  2  1  2  0  0  0  0
  3  4  1  0  0  0  0
  3  1  1  0  0  0  0
  5  6  1  0  0  0  0
  6  7  1  0  0  0  0
  7  8  1  0  0  0  0
  9  8  1  0  0  0  0
 10  9  1  0  0  0  0
 12 11  1  0  0  0  0
 12 10  1  0  0  0  0
 13  3  1  0  0  0  0
 14 13  1  0  0  0  0
 14 19  1  0  0  0  0
 15 14  2  0  0  0  0
 16 15  1  0  0  0  0
 16 17  2  0  0  0  0
 17 18  1  0  0  0  0
 18 19  2  0  0  0  0
 18 20  1  0  0  0  0
 20 21  1  0  0  0  0
M  END
>  <MODEL>
7

>  <REMARK>
 VINA RESULT:    -5.224     11.927     13.503
 INTER + INTRA:          -9.595
 INTER:                  -8.125
 INTRA:                  -1.470
 UNBOUND:                -1.470
  Name = CHEMBL80320
  11 active torsions:
  status: ('A' for Active; 'I' for Inactive)
    1  A    between atoms: C_1  and  C_2
    2  A    between atoms: C_2  and  C_3
    3  A    between atoms: C_3  and  C_4
    4  A    between atoms: C_4  and  C_5
    5  A    between atoms: C_5  and  C_6
    6  A    between atoms: C_6  and  C_7
    7  A    between atoms: C_7  and  C_8
    8  A    between atoms: C_8  and  C_9
    9  A    between atoms: N_11  and  C_12
   10  A    between atoms: C_12  and  C_13
   11  A    between atoms: C_17  and  O_18
                            x       y       z     vdW  Elec       q    Type
                         _______ _______ _______ _____ _____    ______ ____

>  <TORSDO>
F 10

>  <SCORE>
-5.224

>  <RMSD_LB>
11.927

>  <RMSD_UB>
13.503

$$$$
CHEMBL80320
 OpenBabel10162523583D

 21 21  0  0  0  0  0  0  0  0999 V2000
  134.7550  133.1770  146.0910 C   0  0  0  0  0  0  0  0  0  0  0  0
  135.3370  132.3800  146.8170 O   0  0  0  0  0  0  0  0  0  0  0  0
  133.5050  133.6790  146.3640 N   0  0  0  0  0  0  0  0  0  0  0  0
  133.1080  134.3320  145.7440 H   0  0  0  0  0  0  0  0  0  0  0  0
  135.3870  133.7100  144.8240 C   0  0  0  0  0  2  0  0  0  0  0  0
  135.3570  135.2320  144.7820 C   0  0  0  0  0  2  0  0  0  0  0  0
  136.0700  135.8410  145.9840 C   0  0  0  0  0  2  0  0  0  0  0  0
  137.5260  135.3860  146.0210 C   0  0  0  0  0  2  0  0  0  0  0  0
  138.1090  135.5180  147.4230 C   0  0  0  0  0  2  0  0  0  0  0  0
  137.3180  134.6750  148.4190 C   0  0  0  0  0  2  0  0  0  0  0  0
  136.4640  134.7270  150.7790 C   0  0  0  0  0  1  0  0  0  0  0  0
  136.7280  135.5430  149.5270 C   0  0  0  0  0  2  0  0  0  0  0  0
  132.7570  133.2770  147.5320 C   0  0  0  0  0  2  0  0  0  0  0  0
  132.8580  134.3080  148.6260 C   0  0  0  0  0  0  0  0  0  0  0  0
  133.0170  135.6660  148.3110 C   0  0  0  0  0  3  0  0  0  0  0  0
  133.0790  136.6270  149.3240 C   0  0  0  0  0  3  0  0  0  0  0  0
  132.9940  136.2410  150.6610 C   0  0  0  0  0  3  0  0  0  0  0  0
  132.8590  134.8920  150.9740 C   0  0  0  0  0  0  0  0  0  0  0  0
  132.7980  133.9280  149.9720 C   0  0  0  0  0  3  0  0  0  0  0  0
  132.7700  134.4670  152.2670 O   0  0  0  0  0  0  0  0  0  0  0  0
  131.9320  134.2840  152.6430 H   0  0  0  0  0  0  0  0  0  0  0  0
  1  3  1  0  0  0  0
  1  2  2  0  0  0  0
  3 13  1  0  0  0  0
  4  3  1  0  0  0  0
  5  1  1  0  0  0  0
  6  5  1  0  0  0  0
  6  7  1  0  0  0  0
  7  8  1  0  0  0  0
  8  9  1  0  0  0  0
  9 10  1  0  0  0  0
 10 12  1  0  0  0  0
 12 11  1  0  0  0  0
 13 14  1  0  0  0  0
 14 19  1  0  0  0  0
 15 14  2  0  0  0  0
 15 16  1  0  0  0  0
 16 17  2  0  0  0  0
 17 18  1  0  0  0  0
 18 20  1  0  0  0  0
 19 18  2  0  0  0  0
 20 21  1  0  0  0  0
M  END
>  <MODEL>
8

>  <REMARK>
 VINA RESULT:    -5.210     10.565     13.073
 INTER + INTRA:          -9.574
 INTER:                  -7.852
 INTRA:                  -1.722
 UNBOUND:                -1.470
  Name = CHEMBL80320
  11 active torsions:
  status: ('A' for Active; 'I' for Inactive)
    1  A    between atoms: C_1  and  C_2
    2  A    between atoms: C_2  and  C_3
    3  A    between atoms: C_3  and  C_4
    4  A    between atoms: C_4  and  C_5
    5  A    between atoms: C_5  and  C_6
    6  A    between atoms: C_6  and  C_7
    7  A    between atoms: C_7  and  C_8
    8  A    between atoms: C_8  and  C_9
    9  A    between atoms: N_11  and  C_12
   10  A    between atoms: C_12  and  C_13
   11  A    between atoms: C_17  and  O_18
                            x       y       z     vdW  Elec       q    Type
                         _______ _______ _______ _____ _____    ______ ____

>  <TORSDO>
F 10

>  <SCORE>
-5.210

>  <RMSD_LB>
10.565

>  <RMSD_UB>
13.073

$$$$
CHEMBL80320
 OpenBabel10162523583D

 21 21  0  0  0  0  0  0  0  0999 V2000
  146.7830  142.3810  151.3330 C   0  0  0  0  0  0  0  0  0  0  0  0
  145.6610  142.5970  151.7740 O   0  0  0  0  0  0  0  0  0  0  0  0
  147.8510  142.0210  152.1190 N   0  0  0  0  0  0  0  0  0  0  0  0
  148.7200  141.8420  151.6920 H   0  0  0  0  0  0  0  0  0  0  0  0
  147.0870  142.4630  149.8540 C   0  0  0  0  0  2  0  0  0  0  0  0
  146.2530  141.4700  149.0550 C   0  0  0  0  0  2  0  0  0  0  0  0
  146.6240  140.0290  149.3900 C   0  0  0  0  0  2  0  0  0  0  0  0
  145.3710  139.2270  149.7310 C   0  0  0  0  0  2  0  0  0  0  0  0
  145.5650  138.4200  151.0090 C   0  0  0  0  0  2  0  0  0  0  0  0
  146.9550  137.7910  151.0460 C   0  0  0  0  0  2  0  0  0  0  0  0
  147.6060  135.5750  150.0620 C   0  0  0  0  0  1  0  0  0  0  0  0
  146.8680  136.2740  151.1890 C   0  0  0  0  0  2  0  0  0  0  0  0
  147.7390  141.8950  153.5530 C   0  0  0  0  0  2  0  0  0  0  0  0
  147.4360  140.4750  153.9550 C   0  0  0  0  0  0  0  0  0  0  0  0
  148.4690  139.5320  154.0670 C   0  0  0  0  0  3  0  0  0  0  0  0
  148.1940  138.2230  154.4700 C   0  0  0  0  0  3  0  0  0  0  0  0
  146.8850  137.8380  154.7550 C   0  0  0  0  0  3  0  0  0  0  0  0
  145.8570  138.7670  154.6220 C   0  0  0  0  0  0  0  0  0  0  0  0
  146.1210  140.0730  154.2190 C   0  0  0  0  0  3  0  0  0  0  0  0
  144.5610  138.4380  154.8910 O   0  0  0  0  0  0  0  0  0  0  0  0
  144.2060  137.6340  154.5660 H   0  0  0  0  0  0  0  0  0  0  0  0
  1  2  2  0  0  0  0
  1  3  1  0  0  0  0
  3 13  1  0  0  0  0
  4  3  1  0  0  0  0
  5  1  1  0  0  0  0
  6  7  1  0  0  0  0
  6  5  1  0  0  0  0
  7  8  1  0  0  0  0
  8  9  1  0  0  0  0
  9 10  1  0  0  0  0
 10 12  1  0  0  0  0
 11 12  1  0  0  0  0
 13 14  1  0  0  0  0
 14 15  2  0  0  0  0
 14 19  1  0  0  0  0
 15 16  1  0  0  0  0
 16 17  2  0  0  0  0
 18 17  1  0  0  0  0
 18 20  1  0  0  0  0
 19 18  2  0  0  0  0
 21 20  1  0  0  0  0
M  END
>  <MODEL>
9

>  <REMARK>
 VINA RESULT:    -5.207      2.791      3.898
 INTER + INTRA:          -9.569
 INTER:                  -7.799
 INTRA:                  -1.770
 UNBOUND:                -1.470
  Name = CHEMBL80320
  11 active torsions:
  status: ('A' for Active; 'I' for Inactive)
    1  A    between atoms: C_1  and  C_2
    2  A    between atoms: C_2  and  C_3
    3  A    between atoms: C_3  and  C_4
    4  A    between atoms: C_4  and  C_5
    5  A    between atoms: C_5  and  C_6
    6  A    between atoms: C_6  and  C_7
    7  A    between atoms: C_7  and  C_8
    8  A    between atoms: C_8  and  C_9
    9  A    between atoms: N_11  and  C_12
   10  A    between atoms: C_12  and  C_13
   11  A    between atoms: C_17  and  O_18
                            x       y       z     vdW  Elec       q    Type
                         _______ _______ _______ _____ _____    ______ ____

>  <TORSDO>
F 10

>  <SCORE>
-5.207

>  <RMSD_LB>
2.791

>  <RMSD_UB>
3.898

$$$$
