CHEMBL4582084
 OpenBabel10162523453D

 17 17  0  0  0  0  0  0  0  0999 V2000
  146.7010  141.7960  152.6310 C   0  0  0  0  0  0  0  0  0  0  0  0
  147.7320  142.2900  151.8210 C   0  0  0  0  0  3  0  0  0  0  0  0
  147.5860  142.3130  150.4350 C   0  0  0  0  0  3  0  0  0  0  0  0
  146.4120  141.8470  149.8490 C   0  0  0  0  0  0  0  0  0  0  0  0
  146.3220  141.9130  148.5120 F   0  0  0  0  0  0  0  0  0  0  0  0
  145.3730  141.3370  150.6300 C   0  0  0  0  0  0  0  0  0  0  0  0
  145.5320  141.3120  152.0220 C   0  0  0  0  0  3  0  0  0  0  0  0
  144.1730  140.8440  150.1950 O   0  0  0  0  0  0  0  0  0  0  0  0
  143.4180  140.0770  151.1260 C   0  0  0  0  0  1  0  0  0  0  0  0
  146.8290  141.8150  154.1320 C   0  0  0  0  0  2  0  0  0  0  0  0
  147.7590  139.6720  154.8690 C   0  0  0  0  0  0  0  0  0  0  0  0
  148.8900  139.9790  154.5080 O   0  0  0  0  0  0  0  0  0  0  0  0
  146.6640  140.4950  154.7050 N   0  0  0  0  0  0  0  0  0  0  0  0
  145.7700  140.1840  154.9780 H   0  0  0  0  0  0  0  0  0  0  0  0
  147.4250  138.3290  155.4850 C   0  0  0  0  0  2  0  0  0  0  0  0
  145.8370  136.9540  154.0680 C   0  0  0  0  0  1  0  0  0  0  0  0
  147.2870  137.2550  154.4030 C   0  0  0  0  0  2  0  0  0  0  0  0
  1 10  1  0  0  0  0
  2  1  2  0  0  0  0
  3  2  1  0  0  0  0
  4  3  2  0  0  0  0
  4  6  1  0  0  0  0
  5  4  1  0  0  0  0
  6  7  2  0  0  0  0
  7  1  1  0  0  0  0
  8  6  1  0  0  0  0
  8  9  1  0  0  0  0
 10 13  1  0  0  0  0
 11 15  1  0  0  0  0
 12 11  2  0  0  0  0
 13 11  1  0  0  0  0
 13 14  1  0  0  0  0
 16 17  1  0  0  0  0
 17 15  1  0  0  0  0
M  END
>  <MODEL>
1

>  <REMARK>
 VINA RESULT:    -5.967      0.000      0.000
 INTER + INTRA:          -8.153
 INTER:                  -7.698
 INTRA:                  -0.455
 UNBOUND:                -0.441
  Name = CHEMBL4582084
  7 active torsions:
  status: ('A' for Active; 'I' for Inactive)
    1  A    between atoms: C_1  and  C_2
    2  A    between atoms: C_2  and  C_3
    3  A    between atoms: C_3  and  C_4
    4  A    between atoms: N_6  and  C_7
    5  A    between atoms: C_7  and  C_8
    6  A    between atoms: C_13  and  O_14
    7  A    between atoms: O_14  and  C_15
                            x       y       z     vdW  Elec       q    Type
                         _______ _______ _______ _____ _____    ______ ____

>  <TORSDO>
F 5

>  <SCORE>
-5.967

>  <RMSD_LB>
0.000

>  <RMSD_UB>
0.000

$$$$
CHEMBL4582084
 OpenBabel10162523453D

 17 17  0  0  0  0  0  0  0  0999 V2000
  134.4520  133.3230  148.4050 C   0  0  0  0  0  0  0  0  0  0  0  0
  133.8930  132.9400  149.6320 C   0  0  0  0  0  3  0  0  0  0  0  0
  133.1680  133.8570  150.3900 C   0  0  0  0  0  3  0  0  0  0  0  0
  132.9930  135.1600  149.9300 C   0  0  0  0  0  0  0  0  0  0  0  0
  132.2690  135.9920  150.6930 F   0  0  0  0  0  0  0  0  0  0  0  0
  133.5490  135.5730  148.7170 C   0  0  0  0  0  0  0  0  0  0  0  0
  134.2810  134.6450  147.9650 C   0  0  0  0  0  3  0  0  0  0  0  0
  133.4620  136.8130  148.1450 O   0  0  0  0  0  0  0  0  0  0  0  0
  132.7150  136.9130  146.9380 C   0  0  0  0  0  1  0  0  0  0  0  0
  135.1920  132.3240  147.5540 C   0  0  0  0  0  2  0  0  0  0  0  0
  136.0330  132.0820  145.2660 C   0  0  0  0  0  0  0  0  0  0  0  0
  136.0920  130.8600  145.3610 O   0  0  0  0  0  0  0  0  0  0  0  0
  135.6270  132.9010  146.2990 N   0  0  0  0  0  0  0  0  0  0  0  0
  135.6340  133.8790  146.1830 H   0  0  0  0  0  0  0  0  0  0  0  0
  136.4520  132.8350  144.0200 C   0  0  0  0  0  2  0  0  0  0  0  0
  137.7220  132.6550  141.8340 C   0  0  0  0  0  1  0  0  0  0  0  0
  137.2340  131.9220  143.0720 C   0  0  0  0  0  2  0  0  0  0  0  0
  1  2  1  0  0  0  0
  2  3  2  0  0  0  0
  4  3  1  0  0  0  0
  4  5  1  0  0  0  0
  6  4  2  0  0  0  0
  7  1  2  0  0  0  0
  7  6  1  0  0  0  0
  8  6  1  0  0  0  0
  9  8  1  0  0  0  0
 10  1  1  0  0  0  0
 11 12  2  0  0  0  0
 11 13  1  0  0  0  0
 13 10  1  0  0  0  0
 14 13  1  0  0  0  0
 15 11  1  0  0  0  0
 16 17  1  0  0  0  0
 17 15  1  0  0  0  0
M  END
>  <MODEL>
2

>  <REMARK>
 VINA RESULT:    -5.642     14.696     15.446
 INTER + INTRA:          -7.732
 INTER:                  -7.451
 INTRA:                  -0.281
 UNBOUND:                -0.441
  Name = CHEMBL4582084
  7 active torsions:
  status: ('A' for Active; 'I' for Inactive)
    1  A    between atoms: C_1  and  C_2
    2  A    between atoms: C_2  and  C_3
    3  A    between atoms: C_3  and  C_4
    4  A    between atoms: N_6  and  C_7
    5  A    between atoms: C_7  and  C_8
    6  A    between atoms: C_13  and  O_14
    7  A    between atoms: O_14  and  C_15
                            x       y       z     vdW  Elec       q    Type
                         _______ _______ _______ _____ _____    ______ ____

>  <TORSDO>
F 5

>  <SCORE>
-5.642

>  <RMSD_LB>
14.696

>  <RMSD_UB>
15.446

$$$$
CHEMBL4582084
 OpenBabel10162523453D

 17 17  0  0  0  0  0  0  0  0999 V2000
  146.7540  141.2640  153.4070 C   0  0  0  0  0  0  0  0  0  0  0  0
  148.0480  141.3590  153.9350 C   0  0  0  0  0  3  0  0  0  0  0  0
  149.0910  141.8550  153.1540 C   0  0  0  0  0  3  0  0  0  0  0  0
  148.8490  142.2610  151.8440 C   0  0  0  0  0  0  0  0  0  0  0  0
  149.8870  142.7480  151.1470 F   0  0  0  0  0  0  0  0  0  0  0  0
  147.5710  142.1650  151.2870 C   0  0  0  0  0  0  0  0  0  0  0  0
  146.5320  141.6600  152.0780 C   0  0  0  0  0  3  0  0  0  0  0  0
  147.1890  142.5200  150.0220 O   0  0  0  0  0  0  0  0  0  0  0  0
  146.3530  141.6050  149.3230 C   0  0  0  0  0  1  0  0  0  0  0  0
  145.6110  140.7780  154.2610 C   0  0  0  0  0  2  0  0  0  0  0  0
  145.1630  138.3880  153.9680 C   0  0  0  0  0  0  0  0  0  0  0  0
  146.0410  138.0720  154.7640 O   0  0  0  0  0  0  0  0  0  0  0  0
  144.8860  139.6950  153.6280 N   0  0  0  0  0  0  0  0  0  0  0  0
  144.1960  139.8930  152.9540 H   0  0  0  0  0  0  0  0  0  0  0  0
  144.3190  137.3730  153.2250 C   0  0  0  0  0  2  0  0  0  0  0  0
  142.0480  137.4860  152.1050 C   0  0  0  0  0  1  0  0  0  0  0  0
  142.8280  137.6790  153.3930 C   0  0  0  0  0  2  0  0  0  0  0  0
  1  2  1  0  0  0  0
  1 10  1  0  0  0  0
  3  2  2  0  0  0  0
  4  3  1  0  0  0  0
  5  4  1  0  0  0  0
  6  4  2  0  0  0  0
  6  7  1  0  0  0  0
  7  1  2  0  0  0  0
  8  6  1  0  0  0  0
  9  8  1  0  0  0  0
 11 12  2  0  0  0  0
 13 11  1  0  0  0  0
 13 10  1  0  0  0  0
 14 13  1  0  0  0  0
 15 17  1  0  0  0  0
 15 11  1  0  0  0  0
 16 17  1  0  0  0  0
M  END
>  <MODEL>
3

>  <REMARK>
 VINA RESULT:    -5.490      2.313      3.198
 INTER + INTRA:          -7.536
 INTER:                  -7.125
 INTRA:                  -0.411
 UNBOUND:                -0.441
  Name = CHEMBL4582084
  7 active torsions:
  status: ('A' for Active; 'I' for Inactive)
    1  A    between atoms: C_1  and  C_2
    2  A    between atoms: C_2  and  C_3
    3  A    between atoms: C_3  and  C_4
    4  A    between atoms: N_6  and  C_7
    5  A    between atoms: C_7  and  C_8
    6  A    between atoms: C_13  and  O_14
    7  A    between atoms: O_14  and  C_15
                            x       y       z     vdW  Elec       q    Type
                         _______ _______ _______ _____ _____    ______ ____

>  <TORSDO>
F 5

>  <SCORE>
-5.490

>  <RMSD_LB>
2.313

>  <RMSD_UB>
3.198

$$$$
CHEMBL4582084
 OpenBabel10162523453D

 17 17  0  0  0  0  0  0  0  0999 V2000
  135.6890  135.5440  154.4640 C   0  0  0  0  0  0  0  0  0  0  0  0
  134.8350  134.4480  154.6460 C   0  0  0  0  0  3  0  0  0  0  0  0
  134.3360  133.7550  153.5440 C   0  0  0  0  0  3  0  0  0  0  0  0
  134.6900  134.1470  152.2560 C   0  0  0  0  0  0  0  0  0  0  0  0
  134.1960  133.4290  151.2350 F   0  0  0  0  0  0  0  0  0  0  0  0
  135.5300  135.2420  152.0430 C   0  0  0  0  0  0  0  0  0  0  0  0
  136.0200  135.9360  153.1570 C   0  0  0  0  0  3  0  0  0  0  0  0
  135.9560  135.7400  150.8420 O   0  0  0  0  0  0  0  0  0  0  0  0
  136.8080  134.9050  150.0660 C   0  0  0  0  0  1  0  0  0  0  0  0
  136.2730  136.2660  155.6500 C   0  0  0  0  0  2  0  0  0  0  0  0
  137.8480  138.1090  155.3020 C   0  0  0  0  0  0  0  0  0  0  0  0
  136.9650  138.9540  155.4050 O   0  0  0  0  0  0  0  0  0  0  0  0
  137.6110  136.7530  155.3810 N   0  0  0  0  0  0  0  0  0  0  0  0
  138.3500  136.1160  155.2530 H   0  0  0  0  0  0  0  0  0  0  0  0
  139.2960  138.4590  155.0200 C   0  0  0  0  0  2  0  0  0  0  0  0
  139.3390  137.9540  152.5380 C   0  0  0  0  0  1  0  0  0  0  0  0
  139.4520  139.0260  153.6070 C   0  0  0  0  0  2  0  0  0  0  0  0
  1  2  1  0  0  0  0
  1 10  1  0  0  0  0
  3  2  2  0  0  0  0
  4  3  1  0  0  0  0
  5  4  1  0  0  0  0
  6  4  2  0  0  0  0
  6  7  1  0  0  0  0
  7  1  2  0  0  0  0
  8  6  1  0  0  0  0
  9  8  1  0  0  0  0
 11 13  1  0  0  0  0
 11 12  2  0  0  0  0
 13 10  1  0  0  0  0
 14 13  1  0  0  0  0
 15 11  1  0  0  0  0
 16 17  1  0  0  0  0
 17 15  1  0  0  0  0
M  END
>  <MODEL>
4

>  <REMARK>
 VINA RESULT:    -5.483      9.364     11.651
 INTER + INTRA:          -7.527
 INTER:                  -7.067
 INTRA:                  -0.460
 UNBOUND:                -0.441
  Name = CHEMBL4582084
  7 active torsions:
  status: ('A' for Active; 'I' for Inactive)
    1  A    between atoms: C_1  and  C_2
    2  A    between atoms: C_2  and  C_3
    3  A    between atoms: C_3  and  C_4
    4  A    between atoms: N_6  and  C_7
    5  A    between atoms: C_7  and  C_8
    6  A    between atoms: C_13  and  O_14
    7  A    between atoms: O_14  and  C_15
                            x       y       z     vdW  Elec       q    Type
                         _______ _______ _______ _____ _____    ______ ____

>  <TORSDO>
F 5

>  <SCORE>
-5.483

>  <RMSD_LB>
9.364

>  <RMSD_UB>
11.651

$$$$
CHEMBL4582084
 OpenBabel10162523453D

 17 17  0  0  0  0  0  0  0  0999 V2000
  135.9020  135.8610  157.3840 C   0  0  0  0  0  0  0  0  0  0  0  0
  135.8310  135.9020  158.7830 C   0  0  0  0  0  3  0  0  0  0  0  0
  136.6600  136.7610  159.5040 C   0  0  0  0  0  3  0  0  0  0  0  0
  137.5600  137.5860  158.8350 C   0  0  0  0  0  0  0  0  0  0  0  0
  138.3170  138.4060  159.5800 F   0  0  0  0  0  0  0  0  0  0  0  0
  137.6610  137.5580  157.4420 C   0  0  0  0  0  0  0  0  0  0  0  0
  136.8300  136.6870  156.7270 C   0  0  0  0  0  3  0  0  0  0  0  0
  138.4980  138.3030  156.6560 O   0  0  0  0  0  0  0  0  0  0  0  0
  139.7830  137.7560  156.3850 C   0  0  0  0  0  1  0  0  0  0  0  0
  134.9750  134.9740  156.5940 C   0  0  0  0  0  2  0  0  0  0  0  0
  134.2790  134.6660  154.2660 C   0  0  0  0  0  0  0  0  0  0  0  0
  134.1270  133.4580  154.4160 O   0  0  0  0  0  0  0  0  0  0  0  0
  134.7200  135.5030  155.2700 N   0  0  0  0  0  0  0  0  0  0  0  0
  134.8620  136.4600  155.0860 H   0  0  0  0  0  0  0  0  0  0  0  0
  134.0530  135.3690  152.9430 C   0  0  0  0  0  2  0  0  0  0  0  0
  136.0800  134.4670  151.7180 C   0  0  0  0  0  1  0  0  0  0  0  0
  135.3870  135.7010  152.2690 C   0  0  0  0  0  2  0  0  0  0  0  0
  1  2  1  0  0  0  0
  2  3  2  0  0  0  0
  4  3  1  0  0  0  0
  4  5  1  0  0  0  0
  6  4  2  0  0  0  0
  7  1  2  0  0  0  0
  7  6  1  0  0  0  0
  8  6  1  0  0  0  0
  9  8  1  0  0  0  0
 10  1  1  0  0  0  0
 11 12  2  0  0  0  0
 11 13  1  0  0  0  0
 13 10  1  0  0  0  0
 14 13  1  0  0  0  0
 15 11  1  0  0  0  0
 16 17  1  0  0  0  0
 17 15  1  0  0  0  0
M  END
>  <MODEL>
5

>  <REMARK>
 VINA RESULT:    -5.460     10.611     12.890
 INTER + INTRA:          -7.497
 INTER:                  -7.102
 INTRA:                  -0.395
 UNBOUND:                -0.441
  Name = CHEMBL4582084
  7 active torsions:
  status: ('A' for Active; 'I' for Inactive)
    1  A    between atoms: C_1  and  C_2
    2  A    between atoms: C_2  and  C_3
    3  A    between atoms: C_3  and  C_4
    4  A    between atoms: N_6  and  C_7
    5  A    between atoms: C_7  and  C_8
    6  A    between atoms: C_13  and  O_14
    7  A    between atoms: O_14  and  C_15
                            x       y       z     vdW  Elec       q    Type
                         _______ _______ _______ _____ _____    ______ ____

>  <TORSDO>
F 5

>  <SCORE>
-5.460

>  <RMSD_LB>
10.611

>  <RMSD_UB>
12.890

$$$$
CHEMBL4582084
 OpenBabel10162523453D

 17 17  0  0  0  0  0  0  0  0999 V2000
  132.8220  135.3030  149.7780 C   0  0  0  0  0  0  0  0  0  0  0  0
  132.7670  136.6460  149.3820 C   0  0  0  0  0  3  0  0  0  0  0  0
  133.1280  137.0120  148.0860 C   0  0  0  0  0  3  0  0  0  0  0  0
  133.5410  136.0410  147.1770 C   0  0  0  0  0  0  0  0  0  0  0  0
  133.8550  136.4490  145.9380 F   0  0  0  0  0  0  0  0  0  0  0  0
  133.6170  134.6970  147.5480 C   0  0  0  0  0  0  0  0  0  0  0  0
  133.2590  134.3410  148.8540 C   0  0  0  0  0  3  0  0  0  0  0  0
  134.0060  133.6420  146.7670 O   0  0  0  0  0  0  0  0  0  0  0  0
  135.1700  132.9340  147.1790 C   0  0  0  0  0  1  0  0  0  0  0  0
  132.3850  134.8930  151.1610 C   0  0  0  0  0  2  0  0  0  0  0  0
  134.1760  135.2990  152.7820 C   0  0  0  0  0  0  0  0  0  0  0  0
  133.9190  136.4970  152.8460 O   0  0  0  0  0  0  0  0  0  0  0  0
  133.4970  134.4230  151.9610 N   0  0  0  0  0  0  0  0  0  0  0  0
  133.7690  133.4780  151.9190 H   0  0  0  0  0  0  0  0  0  0  0  0
  135.3080  134.6550  153.5570 C   0  0  0  0  0  2  0  0  0  0  0  0
  136.7240  135.7760  155.3340 C   0  0  0  0  0  1  0  0  0  0  0  0
  135.3630  135.1980  154.9870 C   0  0  0  0  0  2  0  0  0  0  0  0
  1 10  1  0  0  0  0
  2  1  1  0  0  0  0
  3  2  2  0  0  0  0
  4  6  2  0  0  0  0
  4  3  1  0  0  0  0
  5  4  1  0  0  0  0
  6  7  1  0  0  0  0
  7  1  2  0  0  0  0
  8  9  1  0  0  0  0
  8  6  1  0  0  0  0
 10 13  1  0  0  0  0
 11 12  2  0  0  0  0
 11 15  1  0  0  0  0
 13 11  1  0  0  0  0
 14 13  1  0  0  0  0
 15 17  1  0  0  0  0
 17 16  1  0  0  0  0
M  END
>  <MODEL>
6

>  <REMARK>
 VINA RESULT:    -5.452     12.174     14.088
 INTER + INTRA:          -7.486
 INTER:                  -7.114
 INTRA:                  -0.373
 UNBOUND:                -0.441
  Name = CHEMBL4582084
  7 active torsions:
  status: ('A' for Active; 'I' for Inactive)
    1  A    between atoms: C_1  and  C_2
    2  A    between atoms: C_2  and  C_3
    3  A    between atoms: C_3  and  C_4
    4  A    between atoms: N_6  and  C_7
    5  A    between atoms: C_7  and  C_8
    6  A    between atoms: C_13  and  O_14
    7  A    between atoms: O_14  and  C_15
                            x       y       z     vdW  Elec       q    Type
                         _______ _______ _______ _____ _____    ______ ____

>  <TORSDO>
F 5

>  <SCORE>
-5.452

>  <RMSD_LB>
12.174

>  <RMSD_UB>
14.088

$$$$
CHEMBL4582084
 OpenBabel10162523453D

 17 17  0  0  0  0  0  0  0  0999 V2000
  144.9720  140.5970  152.1020 C   0  0  0  0  0  0  0  0  0  0  0  0
  145.5370  141.8640  151.9050 C   0  0  0  0  0  3  0  0  0  0  0  0
  146.5200  142.3390  152.7730 C   0  0  0  0  0  3  0  0  0  0  0  0
  146.9460  141.5520  153.8390 C   0  0  0  0  0  0  0  0  0  0  0  0
  147.9090  142.0530  154.6290 F   0  0  0  0  0  0  0  0  0  0  0  0
  146.3920  140.2910  154.0680 C   0  0  0  0  0  0  0  0  0  0  0  0
  145.4010  139.8260  153.1940 C   0  0  0  0  0  3  0  0  0  0  0  0
  146.7090  139.4150  155.0710 O   0  0  0  0  0  0  0  0  0  0  0  0
  147.4430  138.2540  154.7020 C   0  0  0  0  0  1  0  0  0  0  0  0
  143.9470  140.0560  151.1390 C   0  0  0  0  0  2  0  0  0  0  0  0
  142.4970  138.2060  151.8290 C   0  0  0  0  0  0  0  0  0  0  0  0
  143.1800  137.3790  151.2340 O   0  0  0  0  0  0  0  0  0  0  0  0
  142.7720  139.5570  151.8250 N   0  0  0  0  0  0  0  0  0  0  0  0
  142.1700  140.1840  152.2880 H   0  0  0  0  0  0  0  0  0  0  0  0
  141.2390  137.8430  152.5910 C   0  0  0  0  0  2  0  0  0  0  0  0
  138.7290  137.8810  152.2490 C   0  0  0  0  0  1  0  0  0  0  0  0
  140.0800  137.5720  151.6290 C   0  0  0  0  0  2  0  0  0  0  0  0
  1  7  1  0  0  0  0
  2  1  2  0  0  0  0
  2  3  1  0  0  0  0
  3  4  2  0  0  0  0
  4  6  1  0  0  0  0
  4  5  1  0  0  0  0
  6  8  1  0  0  0  0
  7  6  2  0  0  0  0
  9  8  1  0  0  0  0
 10 13  1  0  0  0  0
 10  1  1  0  0  0  0
 11 15  1  0  0  0  0
 12 11  2  0  0  0  0
 13 11  1  0  0  0  0
 13 14  1  0  0  0  0
 17 16  1  0  0  0  0
 17 15  1  0  0  0  0
M  END
>  <MODEL>
7

>  <REMARK>
 VINA RESULT:    -5.405      3.112      5.302
 INTER + INTRA:          -7.426
 INTER:                  -7.115
 INTRA:                  -0.312
 UNBOUND:                -0.441
  Name = CHEMBL4582084
  7 active torsions:
  status: ('A' for Active; 'I' for Inactive)
    1  A    between atoms: C_1  and  C_2
    2  A    between atoms: C_2  and  C_3
    3  A    between atoms: C_3  and  C_4
    4  A    between atoms: N_6  and  C_7
    5  A    between atoms: C_7  and  C_8
    6  A    between atoms: C_13  and  O_14
    7  A    between atoms: O_14  and  C_15
                            x       y       z     vdW  Elec       q    Type
                         _______ _______ _______ _____ _____    ______ ____

>  <TORSDO>
F 5

>  <SCORE>
-5.405

>  <RMSD_LB>
3.112

>  <RMSD_UB>
5.302

$$$$
CHEMBL4582084
 OpenBabel10162523453D

 17 17  0  0  0  0  0  0  0  0999 V2000
  146.1290  141.4570  151.5990 C   0  0  0  0  0  0  0  0  0  0  0  0
  146.7620  142.1820  150.5800 C   0  0  0  0  0  3  0  0  0  0  0  0
  148.1030  142.5400  150.7010 C   0  0  0  0  0  3  0  0  0  0  0  0
  148.8230  142.1750  151.8360 C   0  0  0  0  0  0  0  0  0  0  0  0
  150.1160  142.5290  151.8880 F   0  0  0  0  0  0  0  0  0  0  0  0
  148.2150  141.4630  152.8730 C   0  0  0  0  0  0  0  0  0  0  0  0
  146.8650  141.1140  152.7440 C   0  0  0  0  0  3  0  0  0  0  0  0
  148.7930  141.0430  154.0400 O   0  0  0  0  0  0  0  0  0  0  0  0
  148.3150  139.8200  154.5900 C   0  0  0  0  0  1  0  0  0  0  0  0
  144.6940  141.0220  151.4530 C   0  0  0  0  0  2  0  0  0  0  0  0
  144.3310  138.6010  151.5370 C   0  0  0  0  0  0  0  0  0  0  0  0
  144.4280  138.4900  150.3200 O   0  0  0  0  0  0  0  0  0  0  0  0
  144.4200  139.8090  152.1960 N   0  0  0  0  0  0  0  0  0  0  0  0
  144.2960  139.8470  153.1720 H   0  0  0  0  0  0  0  0  0  0  0  0
  144.0450  137.4270  152.4520 C   0  0  0  0  0  2  0  0  0  0  0  0
  145.9620  136.5710  153.8710 C   0  0  0  0  0  1  0  0  0  0  0  0
  144.8170  137.5640  153.7670 C   0  0  0  0  0  2  0  0  0  0  0  0
  1  7  1  0  0  0  0
  2  3  1  0  0  0  0
  2  1  2  0  0  0  0
  3  4  2  0  0  0  0
  4  5  1  0  0  0  0
  4  6  1  0  0  0  0
  6  8  1  0  0  0  0
  7  6  2  0  0  0  0
  8  9  1  0  0  0  0
 10  1  1  0  0  0  0
 10 13  1  0  0  0  0
 11 13  1  0  0  0  0
 11 15  1  0  0  0  0
 12 11  2  0  0  0  0
 13 14  1  0  0  0  0
 15 17  1  0  0  0  0
 17 16  1  0  0  0  0
M  END
>  <MODEL>
8

>  <REMARK>
 VINA RESULT:    -5.374      1.981      3.907
 INTER + INTRA:          -7.386
 INTER:                  -6.838
 INTRA:                  -0.548
 UNBOUND:                -0.441
  Name = CHEMBL4582084
  7 active torsions:
  status: ('A' for Active; 'I' for Inactive)
    1  A    between atoms: C_1  and  C_2
    2  A    between atoms: C_2  and  C_3
    3  A    between atoms: C_3  and  C_4
    4  A    between atoms: N_6  and  C_7
    5  A    between atoms: C_7  and  C_8
    6  A    between atoms: C_13  and  O_14
    7  A    between atoms: O_14  and  C_15
                            x       y       z     vdW  Elec       q    Type
                         _______ _______ _______ _____ _____    ______ ____

>  <TORSDO>
F 5

>  <SCORE>
-5.374

>  <RMSD_LB>
1.981

>  <RMSD_UB>
3.907

$$$$
CHEMBL4582084
 OpenBabel10162523453D

 17 17  0  0  0  0  0  0  0  0999 V2000
  146.9610  140.0440  151.4170 C   0  0  0  0  0  0  0  0  0  0  0  0
  147.4010  141.2380  150.8310 C   0  0  0  0  0  3  0  0  0  0  0  0
  148.3550  142.0260  151.4740 C   0  0  0  0  0  3  0  0  0  0  0  0
  148.8780  141.6260  152.7010 C   0  0  0  0  0  0  0  0  0  0  0  0
  149.8080  142.4140  153.2610 F   0  0  0  0  0  0  0  0  0  0  0  0
  148.4490  140.4470  153.3140 C   0  0  0  0  0  0  0  0  0  0  0  0
  147.4850  139.6660  152.6630 C   0  0  0  0  0  3  0  0  0  0  0  0
  148.8680  139.9350  154.5120 O   0  0  0  0  0  0  0  0  0  0  0  0
  147.9630  139.0770  155.1960 C   0  0  0  0  0  1  0  0  0  0  0  0
  145.9690  139.1610  150.7050 C   0  0  0  0  0  2  0  0  0  0  0  0
  143.6810  139.5780  151.4730 C   0  0  0  0  0  0  0  0  0  0  0  0
  143.5600  140.5600  150.7480 O   0  0  0  0  0  0  0  0  0  0  0  0
  144.8370  138.8310  151.5480 N   0  0  0  0  0  0  0  0  0  0  0  0
  144.8950  138.0740  152.1750 H   0  0  0  0  0  0  0  0  0  0  0  0
  142.5890  139.1050  152.4120 C   0  0  0  0  0  2  0  0  0  0  0  0
  141.5400  137.2500  151.0420 C   0  0  0  0  0  1  0  0  0  0  0  0
  142.3650  137.5980  152.2680 C   0  0  0  0  0  2  0  0  0  0  0  0
  1  7  1  0  0  0  0
  2  1  2  0  0  0  0
  2  3  1  0  0  0  0
  3  4  2  0  0  0  0
  4  5  1  0  0  0  0
  4  6  1  0  0  0  0
  6  8  1  0  0  0  0
  7  6  2  0  0  0  0
  8  9  1  0  0  0  0
 10  1  1  0  0  0  0
 10 13  1  0  0  0  0
 11 13  1  0  0  0  0
 11 15  1  0  0  0  0
 12 11  2  0  0  0  0
 13 14  1  0  0  0  0
 16 17  1  0  0  0  0
 17 15  1  0  0  0  0
M  END
>  <MODEL>
9

>  <REMARK>
 VINA RESULT:    -5.288      2.476      4.734
 INTER + INTRA:          -7.274
 INTER:                  -6.833
 INTRA:                  -0.441
 UNBOUND:                -0.441
  Name = CHEMBL4582084
  7 active torsions:
  status: ('A' for Active; 'I' for Inactive)
    1  A    between atoms: C_1  and  C_2
    2  A    between atoms: C_2  and  C_3
    3  A    between atoms: C_3  and  C_4
    4  A    between atoms: N_6  and  C_7
    5  A    between atoms: C_7  and  C_8
    6  A    between atoms: C_13  and  O_14
    7  A    between atoms: O_14  and  C_15
                            x       y       z     vdW  Elec       q    Type
                         _______ _______ _______ _____ _____    ______ ____

>  <TORSDO>
F 5

>  <SCORE>
-5.288

>  <RMSD_LB>
2.476

>  <RMSD_UB>
4.734

$$$$
