CHEMBL4225800
 OpenBabel10172500373D

 28 28  0  0  0  0  0  0  0  0999 V2000
  142.7700  139.6050  152.7470 N   0  0  0  0  0  0  0  0  0  0  0  0
  142.2790  138.3210  152.8300 C   0  0  0  0  0  0  0  0  0  0  0  0
  142.7160  137.3810  152.1700 O   0  0  0  0  0  0  0  0  0  0  0  0
  142.3690  140.3030  153.3150 H   0  0  0  0  0  0  0  0  0  0  0  0
  143.8490  139.9690  151.8610 C   0  0  0  0  0  2  0  0  0  0  0  0
  146.8270  140.1100  154.2730 C   0  0  0  0  0  0  0  0  0  0  0  0
  145.7100  139.6430  153.5650 C   0  0  0  0  0  3  0  0  0  0  0  0
  145.0910  140.4390  152.5810 C   0  0  0  0  0  0  0  0  0  0  0  0
  145.6270  141.7030  152.3010 C   0  0  0  0  0  3  0  0  0  0  0  0
  146.7360  142.1800  153.0000 C   0  0  0  0  0  3  0  0  0  0  0  0
  147.3270  141.3870  153.9790 C   0  0  0  0  0  0  0  0  0  0  0  0
  148.1970  138.2540  154.8740 C   0  0  0  0  0  1  0  0  0  0  0  0
  147.4830  139.4180  155.2580 O   0  0  0  0  0  0  0  0  0  0  0  0
  148.4110  141.8610  154.6720 O   0  0  0  0  0  0  0  0  0  0  0  0
  148.2910  142.2770  155.5030 H   0  0  0  0  0  0  0  0  0  0  0  0
  141.1140  138.1510  153.8100 C   0  0  0  0  0  2  0  0  0  0  0  0
  139.8510  138.0530  153.1600 O   0  0  0  0  0  0  0  0  0  0  0  0
  138.8060  138.3470  153.9750 C   0  0  0  0  0  0  0  0  0  0  0  0
  138.7830  139.2370  154.8010 O   0  0  0  0  0  0  0  0  0  0  0  0
  137.7140  137.3910  153.6800 C   0  0  0  0  0  3  0  0  0  0  0  0
  137.0980  136.5730  154.5600 C   0  0  0  0  0  0  0  0  0  0  0  0
  137.4070  136.5340  156.0390 C   0  0  0  0  0  1  0  0  0  0  0  0
  136.0000  135.5890  154.1430 C   0  0  0  0  0  2  0  0  0  0  0  0
  135.8480  135.4170  152.6230 C   0  0  0  0  0  2  0  0  0  0  0  0
  134.5600  135.8650  151.9960 C   0  0  0  0  0  3  0  0  0  0  0  0
  133.8030  135.0500  151.2320 C   0  0  0  0  0  0  0  0  0  0  0  0
  134.1560  133.6160  150.9200 C   0  0  0  0  0  1  0  0  0  0  0  0
  132.5130  135.5120  150.6100 C   0  0  0  0  0  1  0  0  0  0  0  0
  1  2  1  0  0  0  0
  1  4  1  0  0  0  0
  2 16  1  0  0  0  0
  3  2  2  0  0  0  0
  5  8  1  0  0  0  0
  5  1  1  0  0  0  0
  6 13  1  0  0  0  0
  7  6  2  0  0  0  0
  8  7  1  0  0  0  0
  9  8  2  0  0  0  0
  9 10  1  0  0  0  0
 10 11  2  0  0  0  0
 11  6  1  0  0  0  0
 11 14  1  0  0  0  0
 12 13  1  0  0  0  0
 14 15  1  0  0  0  0
 17 16  1  0  0  0  0
 17 18  1  0  0  0  0
 18 19  2  0  0  0  0
 20 18  1  0  0  0  0
 20 21  2  0  0  0  0
 21 22  1  0  0  0  0
 23 21  1  0  0  0  0
 24 23  1  0  0  0  0
 25 24  1  0  0  0  0
 26 25  2  0  0  0  0
 27 26  1  0  0  0  0
 28 26  1  0  0  0  0
M  END
>  <MODEL>
1

>  <REMARK>
 VINA RESULT:    -6.670      0.000      0.000
 INTER + INTRA:         -12.151
 INTER:                 -11.496
 INTRA:                  -0.655
 UNBOUND:                -1.387
  Name = CHEMBL4225800
  15 active torsions:
  status: ('A' for Active; 'I' for Inactive)
    1  A    between atoms: C_1  and  O_2
    2  A    between atoms: O_2  and  C_3
    3  A    between atoms: C_5  and  C_6
    4  A    between atoms: C_6  and  N_7
    5  A    between atoms: C_8  and  C_10
    6  A    between atoms: C_10  and  O_11
    7  A    between atoms: O_11  and  C_12
    8  A    between atoms: C_12  and  C_14
    9  A    between atoms: C_15  and  C_16
   10  A    between atoms: C_15  and  C_17
   11  A    between atoms: C_17  and  C_18
   12  A    between atoms: C_18  and  C_19
   13  A    between atoms: C_20  and  C_21
   14  A    between atoms: C_20  and  C_22
   15  A    between atoms: C_25  and  O_26
                            x       y       z     vdW  Elec       q    Type
                         _______ _______ _______ _____ _____    ______ ____

>  <TORSDO>
F 11

>  <SCORE>
-6.670

>  <RMSD_LB>
0.000

>  <RMSD_UB>
0.000

$$$$
CHEMBL4225800
 OpenBabel10172500373D

 28 28  0  0  0  0  0  0  0  0999 V2000
  146.2360  138.0790  152.7500 N   0  0  0  0  0  0  0  0  0  0  0  0
  146.7830  138.1570  154.0110 C   0  0  0  0  0  0  0  0  0  0  0  0
  147.1660  137.1790  154.6480 O   0  0  0  0  0  0  0  0  0  0  0  0
  145.9590  138.9120  152.3030 H   0  0  0  0  0  0  0  0  0  0  0  0
  146.0510  136.8270  152.0580 C   0  0  0  0  0  2  0  0  0  0  0  0
  142.4690  137.4280  150.8290 C   0  0  0  0  0  0  0  0  0  0  0  0
  143.6530  137.5250  151.5740 C   0  0  0  0  0  3  0  0  0  0  0  0
  144.7940  136.7780  151.2230 C   0  0  0  0  0  0  0  0  0  0  0  0
  144.7360  135.9500  150.0930 C   0  0  0  0  0  3  0  0  0  0  0  0
  143.5640  135.8440  149.3440 C   0  0  0  0  0  3  0  0  0  0  0  0
  142.4400  136.5770  149.7140 C   0  0  0  0  0  0  0  0  0  0  0  0
  141.2700  139.4890  150.8220 C   0  0  0  0  0  1  0  0  0  0  0  0
  141.3060  138.0990  151.1040 O   0  0  0  0  0  0  0  0  0  0  0  0
  141.2860  136.4640  148.9830 O   0  0  0  0  0  0  0  0  0  0  0  0
  141.2810  136.6970  148.0760 H   0  0  0  0  0  0  0  0  0  0  0  0
  146.8650  139.5780  154.5800 C   0  0  0  0  0  2  0  0  0  0  0  0
  148.1890  140.1020  154.5770 O   0  0  0  0  0  0  0  0  0  0  0  0
  148.2430  141.4170  154.2470 C   0  0  0  0  0  0  0  0  0  0  0  0
  148.9460  142.2510  154.7810 O   0  0  0  0  0  0  0  0  0  0  0  0
  147.2950  141.6470  153.1330 C   0  0  0  0  0  3  0  0  0  0  0  0
  147.6040  142.0360  151.8780 C   0  0  0  0  0  0  0  0  0  0  0  0
  149.0140  142.2630  151.3840 C   0  0  0  0  0  1  0  0  0  0  0  0
  146.5390  142.2850  150.8040 C   0  0  0  0  0  2  0  0  0  0  0  0
  145.7970  141.0190  150.3440 C   0  0  0  0  0  2  0  0  0  0  0  0
  146.6080  139.9290  149.7060 C   0  0  0  0  0  3  0  0  0  0  0  0
  146.1330  139.1660  148.6990 C   0  0  0  0  0  0  0  0  0  0  0  0
  144.7530  139.3160  148.1040 C   0  0  0  0  0  1  0  0  0  0  0  0
  146.9560  138.0780  148.0680 C   0  0  0  0  0  1  0  0  0  0  0  0
  1  2  1  0  0  0  0
  2 16  1  0  0  0  0
  2  3  2  0  0  0  0
  4  1  1  0  0  0  0
  5  1  1  0  0  0  0
  6 13  1  0  0  0  0
  6  7  1  0  0  0  0
  8  7  2  0  0  0  0
  8  5  1  0  0  0  0
  9  8  1  0  0  0  0
 10 11  1  0  0  0  0
 10  9  2  0  0  0  0
 11  6  2  0  0  0  0
 12 13  1  0  0  0  0
 14 11  1  0  0  0  0
 15 14  1  0  0  0  0
 17 16  1  0  0  0  0
 18 17  1  0  0  0  0
 18 19  2  0  0  0  0
 20 18  1  0  0  0  0
 21 20  2  0  0  0  0
 22 21  1  0  0  0  0
 23 21  1  0  0  0  0
 24 23  1  0  0  0  0
 25 24  1  0  0  0  0
 26 25  2  0  0  0  0
 27 26  1  0  0  0  0
 28 26  1  0  0  0  0
M  END
>  <MODEL>
2

>  <REMARK>
 VINA RESULT:    -6.668      4.913      9.475
 INTER + INTRA:         -12.148
 INTER:                  -9.883
 INTRA:                  -2.265
 UNBOUND:                -1.387
  Name = CHEMBL4225800
  15 active torsions:
  status: ('A' for Active; 'I' for Inactive)
    1  A    between atoms: C_1  and  O_2
    2  A    between atoms: O_2  and  C_3
    3  A    between atoms: C_5  and  C_6
    4  A    between atoms: C_6  and  N_7
    5  A    between atoms: C_8  and  C_10
    6  A    between atoms: C_10  and  O_11
    7  A    between atoms: O_11  and  C_12
    8  A    between atoms: C_12  and  C_14
    9  A    between atoms: C_15  and  C_16
   10  A    between atoms: C_15  and  C_17
   11  A    between atoms: C_17  and  C_18
   12  A    between atoms: C_18  and  C_19
   13  A    between atoms: C_20  and  C_21
   14  A    between atoms: C_20  and  C_22
   15  A    between atoms: C_25  and  O_26
                            x       y       z     vdW  Elec       q    Type
                         _______ _______ _______ _____ _____    ______ ____

>  <TORSDO>
F 11

>  <SCORE>
-6.668

>  <RMSD_LB>
4.913

>  <RMSD_UB>
9.475

$$$$
CHEMBL4225800
 OpenBabel10172500373D

 28 28  0  0  0  0  0  0  0  0999 V2000
  138.5820  136.8360  149.8710 N   0  0  0  0  0  0  0  0  0  0  0  0
  137.9020  137.6540  148.9960 C   0  0  0  0  0  0  0  0  0  0  0  0
  138.4250  138.5850  148.3890 O   0  0  0  0  0  0  0  0  0  0  0  0
  138.0910  136.1060  150.3150 H   0  0  0  0  0  0  0  0  0  0  0  0
  139.9850  137.0050  150.1640 C   0  0  0  0  0  2  0  0  0  0  0  0
  139.4940  138.6790  153.5780 C   0  0  0  0  0  0  0  0  0  0  0  0
  139.2260  138.1280  152.3170 C   0  0  0  0  0  3  0  0  0  0  0  0
  140.2520  137.5430  151.5490 C   0  0  0  0  0  0  0  0  0  0  0  0
  141.5490  137.4970  152.0800 C   0  0  0  0  0  3  0  0  0  0  0  0
  141.8280  138.0440  153.3320 C   0  0  0  0  0  3  0  0  0  0  0  0
  140.8060  138.6320  154.0720 C   0  0  0  0  0  0  0  0  0  0  0  0
  137.7370  138.4450  155.1720 C   0  0  0  0  0  1  0  0  0  0  0  0
  138.5690  139.2860  154.3870 O   0  0  0  0  0  0  0  0  0  0  0  0
  141.0850  139.1780  155.2980 O   0  0  0  0  0  0  0  0  0  0  0  0
  140.4150  139.2290  155.9510 H   0  0  0  0  0  0  0  0  0  0  0  0
  136.4130  137.3230  148.8470 C   0  0  0  0  0  2  0  0  0  0  0  0
  136.0130  136.2000  149.6250 O   0  0  0  0  0  0  0  0  0  0  0  0
  134.7120  136.2500  150.0090 C   0  0  0  0  0  0  0  0  0  0  0  0
  133.7880  136.6370  149.3220 O   0  0  0  0  0  0  0  0  0  0  0  0
  134.6280  135.7600  151.4030 C   0  0  0  0  0  3  0  0  0  0  0  0
  134.3030  134.5100  151.8000 C   0  0  0  0  0  0  0  0  0  0  0  0
  134.0070  133.3700  150.8530 C   0  0  0  0  0  1  0  0  0  0  0  0
  134.2070  134.1130  153.2770 C   0  0  0  0  0  2  0  0  0  0  0  0
  134.0550  135.2990  154.2440 C   0  0  0  0  0  2  0  0  0  0  0  0
  135.2350  135.6560  155.0990 C   0  0  0  0  0  3  0  0  0  0  0  0
  135.3300  135.2870  156.3940 C   0  0  0  0  0  0  0  0  0  0  0  0
  134.2780  134.4860  157.1240 C   0  0  0  0  0  1  0  0  0  0  0  0
  136.5190  135.6500  157.2410 C   0  0  0  0  0  1  0  0  0  0  0  0
  1  5  1  0  0  0  0
  1  4  1  0  0  0  0
  2  1  1  0  0  0  0
  3  2  2  0  0  0  0
  5  8  1  0  0  0  0
  6 11  1  0  0  0  0
  6 13  1  0  0  0  0
  7  6  2  0  0  0  0
  8  9  2  0  0  0  0
  8  7  1  0  0  0  0
  9 10  1  0  0  0  0
 10 11  2  0  0  0  0
 11 14  1  0  0  0  0
 13 12  1  0  0  0  0
 14 15  1  0  0  0  0
 16  2  1  0  0  0  0
 16 17  1  0  0  0  0
 17 18  1  0  0  0  0
 18 20  1  0  0  0  0
 19 18  2  0  0  0  0
 20 21  2  0  0  0  0
 21 23  1  0  0  0  0
 22 21  1  0  0  0  0
 23 24  1  0  0  0  0
 24 25  1  0  0  0  0
 25 26  2  0  0  0  0
 26 27  1  0  0  0  0
 26 28  1  0  0  0  0
M  END
>  <MODEL>
3

>  <REMARK>
 VINA RESULT:    -6.575      3.968      6.364
 INTER + INTRA:         -11.997
 INTER:                 -10.792
 INTRA:                  -1.205
 UNBOUND:                -1.387
  Name = CHEMBL4225800
  15 active torsions:
  status: ('A' for Active; 'I' for Inactive)
    1  A    between atoms: C_1  and  O_2
    2  A    between atoms: O_2  and  C_3
    3  A    between atoms: C_5  and  C_6
    4  A    between atoms: C_6  and  N_7
    5  A    between atoms: C_8  and  C_10
    6  A    between atoms: C_10  and  O_11
    7  A    between atoms: O_11  and  C_12
    8  A    between atoms: C_12  and  C_14
    9  A    between atoms: C_15  and  C_16
   10  A    between atoms: C_15  and  C_17
   11  A    between atoms: C_17  and  C_18
   12  A    between atoms: C_18  and  C_19
   13  A    between atoms: C_20  and  C_21
   14  A    between atoms: C_20  and  C_22
   15  A    between atoms: C_25  and  O_26
                            x       y       z     vdW  Elec       q    Type
                         _______ _______ _______ _____ _____    ______ ____

>  <TORSDO>
F 11

>  <SCORE>
-6.575

>  <RMSD_LB>
3.968

>  <RMSD_UB>
6.364

$$$$
CHEMBL4225800
 OpenBabel10172500373D

 28 28  0  0  0  0  0  0  0  0999 V2000
  144.4620  137.2300  149.4650 N   0  0  0  0  0  0  0  0  0  0  0  0
  145.5380  136.7380  148.7590 C   0  0  0  0  0  0  0  0  0  0  0  0
  145.8330  135.5470  148.7100 O   0  0  0  0  0  0  0  0  0  0  0  0
  144.2890  138.1990  149.4490 H   0  0  0  0  0  0  0  0  0  0  0  0
  143.5790  136.3810  150.2280 C   0  0  0  0  0  2  0  0  0  0  0  0
  140.6310  138.4510  151.5400 C   0  0  0  0  0  0  0  0  0  0  0  0
  141.4500  137.6950  150.6900 C   0  0  0  0  0  3  0  0  0  0  0  0
  142.6600  137.1420  151.1530 C   0  0  0  0  0  0  0  0  0  0  0  0
  143.0220  137.3390  152.4930 C   0  0  0  0  0  3  0  0  0  0  0  0
  142.2160  138.0910  153.3480 C   0  0  0  0  0  3  0  0  0  0  0  0
  141.0310  138.6440  152.8700 C   0  0  0  0  0  0  0  0  0  0  0  0
  139.5230  140.3060  150.5330 C   0  0  0  0  0  1  0  0  0  0  0  0
  139.4500  139.0440  151.1760 O   0  0  0  0  0  0  0  0  0  0  0  0
  140.2460  139.3910  153.7090 O   0  0  0  0  0  0  0  0  0  0  0  0
  139.6810  138.9670  154.3240 H   0  0  0  0  0  0  0  0  0  0  0  0
  146.3660  137.8090  148.0400 C   0  0  0  0  0  2  0  0  0  0  0  0
  146.5620  138.9800  148.8250 O   0  0  0  0  0  0  0  0  0  0  0  0
  145.7580  140.0100  148.4600 C   0  0  0  0  0  0  0  0  0  0  0  0
  144.9750  140.0000  147.5310 O   0  0  0  0  0  0  0  0  0  0  0  0
  146.0100  141.1370  149.3860 C   0  0  0  0  0  3  0  0  0  0  0  0
  145.3200  141.4270  150.5100 C   0  0  0  0  0  0  0  0  0  0  0  0
  144.1730  140.5970  151.0390 C   0  0  0  0  0  1  0  0  0  0  0  0
  145.6400  142.6460  151.3840 C   0  0  0  0  0  2  0  0  0  0  0  0
  146.2180  142.3000  152.7660 C   0  0  0  0  0  2  0  0  0  0  0  0
  147.4410  141.4290  152.8110 C   0  0  0  0  0  3  0  0  0  0  0  0
  147.4280  140.1890  153.3450 C   0  0  0  0  0  0  0  0  0  0  0  0
  146.2060  139.5420  153.9500 C   0  0  0  0  0  1  0  0  0  0  0  0
  148.6600  139.3270  153.3830 C   0  0  0  0  0  1  0  0  0  0  0  0
  1  5  1  0  0  0  0
  2  1  1  0  0  0  0
  3  2  2  0  0  0  0
  4  1  1  0  0  0  0
  5  8  1  0  0  0  0
  6 11  1  0  0  0  0
  7  8  1  0  0  0  0
  7  6  2  0  0  0  0
  8  9  2  0  0  0  0
  9 10  1  0  0  0  0
 11 10  2  0  0  0  0
 11 14  1  0  0  0  0
 12 13  1  0  0  0  0
 13  6  1  0  0  0  0
 14 15  1  0  0  0  0
 16  2  1  0  0  0  0
 16 17  1  0  0  0  0
 18 17  1  0  0  0  0
 18 20  1  0  0  0  0
 19 18  2  0  0  0  0
 20 21  2  0  0  0  0
 21 22  1  0  0  0  0
 21 23  1  0  0  0  0
 23 24  1  0  0  0  0
 24 25  1  0  0  0  0
 25 26  2  0  0  0  0
 26 28  1  0  0  0  0
 26 27  1  0  0  0  0
M  END
>  <MODEL>
4

>  <REMARK>
 VINA RESULT:    -6.373      4.464      9.485
 INTER + INTRA:         -11.672
 INTER:                  -9.759
 INTRA:                  -1.914
 UNBOUND:                -1.387
  Name = CHEMBL4225800
  15 active torsions:
  status: ('A' for Active; 'I' for Inactive)
    1  A    between atoms: C_1  and  O_2
    2  A    between atoms: O_2  and  C_3
    3  A    between atoms: C_5  and  C_6
    4  A    between atoms: C_6  and  N_7
    5  A    between atoms: C_8  and  C_10
    6  A    between atoms: C_10  and  O_11
    7  A    between atoms: O_11  and  C_12
    8  A    between atoms: C_12  and  C_14
    9  A    between atoms: C_15  and  C_16
   10  A    between atoms: C_15  and  C_17
   11  A    between atoms: C_17  and  C_18
   12  A    between atoms: C_18  and  C_19
   13  A    between atoms: C_20  and  C_21
   14  A    between atoms: C_20  and  C_22
   15  A    between atoms: C_25  and  O_26
                            x       y       z     vdW  Elec       q    Type
                         _______ _______ _______ _____ _____    ______ ____

>  <TORSDO>
F 11

>  <SCORE>
-6.373

>  <RMSD_LB>
4.464

>  <RMSD_UB>
9.485

$$$$
CHEMBL4225800
 OpenBabel10172500373D

 28 28  0  0  0  0  0  0  0  0999 V2000
  142.3720  137.6520  152.5760 N   0  0  0  0  0  0  0  0  0  0  0  0
  141.0570  138.0610  152.5710 C   0  0  0  0  0  0  0  0  0  0  0  0
  140.4080  138.2800  153.5910 O   0  0  0  0  0  0  0  0  0  0  0  0
  142.8240  137.5030  151.7140 H   0  0  0  0  0  0  0  0  0  0  0  0
  143.1130  137.4310  153.7940 C   0  0  0  0  0  2  0  0  0  0  0  0
  146.8630  138.1040  154.2300 C   0  0  0  0  0  0  0  0  0  0  0  0
  145.4800  138.0900  154.4580 C   0  0  0  0  0  3  0  0  0  0  0  0
  144.6090  137.3980  153.5930 C   0  0  0  0  0  0  0  0  0  0  0  0
  145.1540  136.6980  152.5070 C   0  0  0  0  0  3  0  0  0  0  0  0
  146.5290  136.7060  152.2690 C   0  0  0  0  0  3  0  0  0  0  0  0
  147.3730  137.4080  153.1250 C   0  0  0  0  0  0  0  0  0  0  0  0
  147.9550  138.3170  156.3390 C   0  0  0  0  0  1  0  0  0  0  0  0
  147.7830  138.7640  155.0030 O   0  0  0  0  0  0  0  0  0  0  0  0
  148.7230  137.4240  152.8830 O   0  0  0  0  0  0  0  0  0  0  0  0
  149.3000  136.9160  153.4180 H   0  0  0  0  0  0  0  0  0  0  0  0
  140.4440  138.2090  151.1740 C   0  0  0  0  0  2  0  0  0  0  0  0
  141.4090  138.5220  150.1750 O   0  0  0  0  0  0  0  0  0  0  0  0
  141.5340  139.8550  149.9520 C   0  0  0  0  0  0  0  0  0  0  0  0
  140.6240  140.6150  149.6900 O   0  0  0  0  0  0  0  0  0  0  0  0
  142.9660  140.2070  150.0780 C   0  0  0  0  0  3  0  0  0  0  0  0
  143.9210  140.0540  149.1350 C   0  0  0  0  0  0  0  0  0  0  0  0
  143.6610  139.5220  147.7450 C   0  0  0  0  0  1  0  0  0  0  0  0
  145.3900  140.4160  149.3810 C   0  0  0  0  0  2  0  0  0  0  0  0
  145.9410  139.9420  150.7360 C   0  0  0  0  0  2  0  0  0  0  0  0
  147.3070  140.4160  151.1370 C   0  0  0  0  0  3  0  0  0  0  0  0
  147.4970  141.4630  151.9670 C   0  0  0  0  0  0  0  0  0  0  0  0
  146.3770  142.2700  152.5780 C   0  0  0  0  0  1  0  0  0  0  0  0
  148.8720  141.9280  152.3620 C   0  0  0  0  0  1  0  0  0  0  0  0
  1  5  1  0  0  0  0
  2  1  1  0  0  0  0
  2  3  2  0  0  0  0
  4  1  1  0  0  0  0
  6  7  1  0  0  0  0
  6 13  1  0  0  0  0
  8  5  1  0  0  0  0
  8  7  2  0  0  0  0
  9  8  1  0  0  0  0
 10  9  2  0  0  0  0
 10 11  1  0  0  0  0
 11  6  2  0  0  0  0
 13 12  1  0  0  0  0
 14 11  1  0  0  0  0
 14 15  1  0  0  0  0
 16  2  1  0  0  0  0
 17 16  1  0  0  0  0
 18 20  1  0  0  0  0
 18 17  1  0  0  0  0
 19 18  2  0  0  0  0
 21 23  1  0  0  0  0
 21 20  2  0  0  0  0
 22 21  1  0  0  0  0
 23 24  1  0  0  0  0
 24 25  1  0  0  0  0
 25 26  2  0  0  0  0
 26 28  1  0  0  0  0
 26 27  1  0  0  0  0
M  END
>  <MODEL>
5

>  <REMARK>
 VINA RESULT:    -6.291      3.990      8.044
 INTER + INTRA:         -11.538
 INTER:                  -9.652
 INTRA:                  -1.886
 UNBOUND:                -1.387
  Name = CHEMBL4225800
  15 active torsions:
  status: ('A' for Active; 'I' for Inactive)
    1  A    between atoms: C_1  and  O_2
    2  A    between atoms: O_2  and  C_3
    3  A    between atoms: C_5  and  C_6
    4  A    between atoms: C_6  and  N_7
    5  A    between atoms: C_8  and  C_10
    6  A    between atoms: C_10  and  O_11
    7  A    between atoms: O_11  and  C_12
    8  A    between atoms: C_12  and  C_14
    9  A    between atoms: C_15  and  C_16
   10  A    between atoms: C_15  and  C_17
   11  A    between atoms: C_17  and  C_18
   12  A    between atoms: C_18  and  C_19
   13  A    between atoms: C_20  and  C_21
   14  A    between atoms: C_20  and  C_22
   15  A    between atoms: C_25  and  O_26
                            x       y       z     vdW  Elec       q    Type
                         _______ _______ _______ _____ _____    ______ ____

>  <TORSDO>
F 11

>  <SCORE>
-6.291

>  <RMSD_LB>
3.990

>  <RMSD_UB>
8.044

$$$$
CHEMBL4225800
 OpenBabel10172500373D

 28 28  0  0  0  0  0  0  0  0999 V2000
  138.0190  137.8940  151.4690 N   0  0  0  0  0  0  0  0  0  0  0  0
  139.3960  137.8740  151.4300 C   0  0  0  0  0  0  0  0  0  0  0  0
  140.0450  137.1190  150.7110 O   0  0  0  0  0  0  0  0  0  0  0  0
  137.5720  138.5350  152.0680 H   0  0  0  0  0  0  0  0  0  0  0  0
  137.2050  137.0130  150.6670 C   0  0  0  0  0  2  0  0  0  0  0  0
  134.7190  134.2550  151.6210 C   0  0  0  0  0  0  0  0  0  0  0  0
  135.5390  135.1000  150.8610 C   0  0  0  0  0  3  0  0  0  0  0  0
  136.3670  136.0560  151.4810 C   0  0  0  0  0  0  0  0  0  0  0  0
  136.3780  136.1330  152.8800 C   0  0  0  0  0  3  0  0  0  0  0  0
  135.5640  135.2990  153.6480 C   0  0  0  0  0  3  0  0  0  0  0  0
  134.7400  134.3710  153.0190 C   0  0  0  0  0  0  0  0  0  0  0  0
  133.9520  133.0410  149.7190 C   0  0  0  0  0  1  0  0  0  0  0  0
  133.8670  133.3110  151.1090 O   0  0  0  0  0  0  0  0  0  0  0  0
  133.9340  133.5590  153.7750 O   0  0  0  0  0  0  0  0  0  0  0  0
  133.4720  132.8510  153.3720 H   0  0  0  0  0  0  0  0  0  0  0  0
  140.0710  138.8690  152.3800 C   0  0  0  0  0  2  0  0  0  0  0  0
  141.4860  138.7220  152.4250 O   0  0  0  0  0  0  0  0  0  0  0  0
  141.9430  138.3080  153.6340 C   0  0  0  0  0  0  0  0  0  0  0  0
  141.2620  137.8320  154.5200 O   0  0  0  0  0  0  0  0  0  0  0  0
  143.4030  138.5440  153.6750 C   0  0  0  0  0  3  0  0  0  0  0  0
  144.0740  139.2940  154.5750 C   0  0  0  0  0  0  0  0  0  0  0  0
  143.4240  139.9980  155.7440 C   0  0  0  0  0  1  0  0  0  0  0  0
  145.5910  139.5060  154.5070 C   0  0  0  0  0  2  0  0  0  0  0  0
  146.1810  139.4030  153.0910 C   0  0  0  0  0  2  0  0  0  0  0  0
  147.5020  140.0700  152.8360 C   0  0  0  0  0  3  0  0  0  0  0  0
  147.6000  141.3600  152.4510 C   0  0  0  0  0  0  0  0  0  0  0  0
  146.4140  142.2690  152.2330 C   0  0  0  0  0  1  0  0  0  0  0  0
  148.9290  142.0170  152.2000 C   0  0  0  0  0  1  0  0  0  0  0  0
  1  4  1  0  0  0  0
  2  1  1  0  0  0  0
  2 16  1  0  0  0  0
  3  2  2  0  0  0  0
  5  1  1  0  0  0  0
  5  8  1  0  0  0  0
  6 11  1  0  0  0  0
  7  8  1  0  0  0  0
  7  6  2  0  0  0  0
  8  9  2  0  0  0  0
  9 10  1  0  0  0  0
 11 10  2  0  0  0  0
 11 14  1  0  0  0  0
 12 13  1  0  0  0  0
 13  6  1  0  0  0  0
 15 14  1  0  0  0  0
 16 17  1  0  0  0  0
 17 18  1  0  0  0  0
 18 20  1  0  0  0  0
 18 19  2  0  0  0  0
 20 21  2  0  0  0  0
 21 22  1  0  0  0  0
 23 21  1  0  0  0  0
 24 23  1  0  0  0  0
 25 24  1  0  0  0  0
 26 25  2  0  0  0  0
 27 26  1  0  0  0  0
 28 26  1  0  0  0  0
M  END
>  <MODEL>
6

>  <REMARK>
 VINA RESULT:    -6.115      2.899     10.996
 INTER + INTRA:         -11.256
 INTER:                 -10.511
 INTRA:                  -0.745
 UNBOUND:                -1.387
  Name = CHEMBL4225800
  15 active torsions:
  status: ('A' for Active; 'I' for Inactive)
    1  A    between atoms: C_1  and  O_2
    2  A    between atoms: O_2  and  C_3
    3  A    between atoms: C_5  and  C_6
    4  A    between atoms: C_6  and  N_7
    5  A    between atoms: C_8  and  C_10
    6  A    between atoms: C_10  and  O_11
    7  A    between atoms: O_11  and  C_12
    8  A    between atoms: C_12  and  C_14
    9  A    between atoms: C_15  and  C_16
   10  A    between atoms: C_15  and  C_17
   11  A    between atoms: C_17  and  C_18
   12  A    between atoms: C_18  and  C_19
   13  A    between atoms: C_20  and  C_21
   14  A    between atoms: C_20  and  C_22
   15  A    between atoms: C_25  and  O_26
                            x       y       z     vdW  Elec       q    Type
                         _______ _______ _______ _____ _____    ______ ____

>  <TORSDO>
F 11

>  <SCORE>
-6.115

>  <RMSD_LB>
2.899

>  <RMSD_UB>
10.996

$$$$
CHEMBL4225800
 OpenBabel10172500373D

 28 28  0  0  0  0  0  0  0  0999 V2000
  141.8650  138.7720  150.7510 N   0  0  0  0  0  0  0  0  0  0  0  0
  141.1840  138.2410  151.8250 C   0  0  0  0  0  0  0  0  0  0  0  0
  141.7080  137.5280  152.6780 O   0  0  0  0  0  0  0  0  0  0  0  0
  141.3740  139.3400  150.1140 H   0  0  0  0  0  0  0  0  0  0  0  0
  143.2680  138.5270  150.5220 C   0  0  0  0  0  2  0  0  0  0  0  0
  145.4760  140.3860  153.0450 C   0  0  0  0  0  0  0  0  0  0  0  0
  144.6870  139.3940  152.4480 C   0  0  0  0  0  3  0  0  0  0  0  0
  144.1720  139.5620  151.1470 C   0  0  0  0  0  0  0  0  0  0  0  0
  144.4840  140.7350  150.4460 C   0  0  0  0  0  3  0  0  0  0  0  0
  145.2660  141.7310  151.0300 C   0  0  0  0  0  3  0  0  0  0  0  0
  145.7550  141.5550  152.3220 C   0  0  0  0  0  0  0  0  0  0  0  0
  146.2240  139.0320  154.8590 C   0  0  0  0  0  1  0  0  0  0  0  0
  146.0040  140.3210  154.3090 O   0  0  0  0  0  0  0  0  0  0  0  0
  146.5150  142.5390  152.8980 O   0  0  0  0  0  0  0  0  0  0  0  0
  146.1710  143.4060  152.9890 H   0  0  0  0  0  0  0  0  0  0  0  0
  139.6950  138.5990  151.8700 C   0  0  0  0  0  2  0  0  0  0  0  0
  138.8630  137.4790  152.1550 O   0  0  0  0  0  0  0  0  0  0  0  0
  137.7470  137.4310  151.3850 C   0  0  0  0  0  0  0  0  0  0  0  0
  137.6180  137.9510  150.2950 O   0  0  0  0  0  0  0  0  0  0  0  0
  136.7250  136.6430  152.1100 C   0  0  0  0  0  3  0  0  0  0  0  0
  136.1780  135.4740  151.7140 C   0  0  0  0  0  0  0  0  0  0  0  0
  136.5660  134.7410  150.4510 C   0  0  0  0  0  1  0  0  0  0  0  0
  135.0940  134.7540  152.5240 C   0  0  0  0  0  2  0  0  0  0  0  0
  133.7170  134.7080  151.8400 C   0  0  0  0  0  2  0  0  0  0  0  0
  133.2940  135.9090  151.0450 C   0  0  0  0  0  3  0  0  0  0  0  0
  133.0050  135.8420  149.7290 C   0  0  0  0  0  0  0  0  0  0  0  0
  133.0740  134.5740  148.9120 C   0  0  0  0  0  1  0  0  0  0  0  0
  132.5810  137.0530  148.9440 C   0  0  0  0  0  1  0  0  0  0  0  0
  1  2  1  0  0  0  0
  2 16  1  0  0  0  0
  2  3  2  0  0  0  0
  4  1  1  0  0  0  0
  5  1  1  0  0  0  0
  5  8  1  0  0  0  0
  6 13  1  0  0  0  0
  7  6  1  0  0  0  0
  8  7  2  0  0  0  0
  9 10  2  0  0  0  0
  9  8  1  0  0  0  0
 10 11  1  0  0  0  0
 11 14  1  0  0  0  0
 11  6  2  0  0  0  0
 13 12  1  0  0  0  0
 14 15  1  0  0  0  0
 16 17  1  0  0  0  0
 18 20  1  0  0  0  0
 18 17  1  0  0  0  0
 19 18  2  0  0  0  0
 21 20  2  0  0  0  0
 21 23  1  0  0  0  0
 22 21  1  0  0  0  0
 24 23  1  0  0  0  0
 25 24  1  0  0  0  0
 26 25  2  0  0  0  0
 27 26  1  0  0  0  0
 28 26  1  0  0  0  0
M  END
>  <MODEL>
7

>  <REMARK>
 VINA RESULT:    -5.979      1.900      2.573
 INTER + INTRA:         -11.035
 INTER:                 -10.025
 INTRA:                  -1.010
 UNBOUND:                -1.387
  Name = CHEMBL4225800
  15 active torsions:
  status: ('A' for Active; 'I' for Inactive)
    1  A    between atoms: C_1  and  O_2
    2  A    between atoms: O_2  and  C_3
    3  A    between atoms: C_5  and  C_6
    4  A    between atoms: C_6  and  N_7
    5  A    between atoms: C_8  and  C_10
    6  A    between atoms: C_10  and  O_11
    7  A    between atoms: O_11  and  C_12
    8  A    between atoms: C_12  and  C_14
    9  A    between atoms: C_15  and  C_16
   10  A    between atoms: C_15  and  C_17
   11  A    between atoms: C_17  and  C_18
   12  A    between atoms: C_18  and  C_19
   13  A    between atoms: C_20  and  C_21
   14  A    between atoms: C_20  and  C_22
   15  A    between atoms: C_25  and  O_26
                            x       y       z     vdW  Elec       q    Type
                         _______ _______ _______ _____ _____    ______ ____

>  <TORSDO>
F 11

>  <SCORE>
-5.979

>  <RMSD_LB>
1.900

>  <RMSD_UB>
2.573

$$$$
CHEMBL4225800
 OpenBabel10172500373D

 28 28  0  0  0  0  0  0  0  0999 V2000
  133.9430  137.4830  146.6390 N   0  0  0  0  0  0  0  0  0  0  0  0
  134.0950  138.2710  145.5190 C   0  0  0  0  0  0  0  0  0  0  0  0
  133.3180  138.2590  144.5680 O   0  0  0  0  0  0  0  0  0  0  0  0
  134.6070  137.5570  147.3630 H   0  0  0  0  0  0  0  0  0  0  0  0
  132.8490  136.5550  146.7940 C   0  0  0  0  0  2  0  0  0  0  0  0
  133.4430  135.4860  150.4280 C   0  0  0  0  0  0  0  0  0  0  0  0
  133.2990  136.2820  149.2830 C   0  0  0  0  0  3  0  0  0  0  0  0
  132.9430  135.7140  148.0440 C   0  0  0  0  0  0  0  0  0  0  0  0
  132.7100  134.3330  147.9780 C   0  0  0  0  0  3  0  0  0  0  0  0
  132.8520  133.5290  149.1100 C   0  0  0  0  0  3  0  0  0  0  0  0
  133.2190  134.1050  150.3230 C   0  0  0  0  0  0  0  0  0  0  0  0
  135.1890  136.0990  151.9300 C   0  0  0  0  0  1  0  0  0  0  0  0
  133.8040  135.9440  151.6680 O   0  0  0  0  0  0  0  0  0  0  0  0
  133.3680  133.3120  151.4320 O   0  0  0  0  0  0  0  0  0  0  0  0
  134.1570  133.3540  151.9350 H   0  0  0  0  0  0  0  0  0  0  0  0
  135.3380  139.1680  145.5400 C   0  0  0  0  0  2  0  0  0  0  0  0
  136.4980  138.5210  145.0270 O   0  0  0  0  0  0  0  0  0  0  0  0
  137.3300  138.0670  145.9980 C   0  0  0  0  0  0  0  0  0  0  0  0
  137.7800  136.9410  146.0730 O   0  0  0  0  0  0  0  0  0  0  0  0
  137.5820  139.1800  146.9400 C   0  0  0  0  0  3  0  0  0  0  0  0
  137.3510  139.1790  148.2710 C   0  0  0  0  0  0  0  0  0  0  0  0
  136.8210  137.9900  149.0380 C   0  0  0  0  0  1  0  0  0  0  0  0
  137.6120  140.4030  149.1550 C   0  0  0  0  0  2  0  0  0  0  0  0
  138.7150  140.2000  150.2080 C   0  0  0  0  0  2  0  0  0  0  0  0
  140.1380  140.3960  149.7720 C   0  0  0  0  0  3  0  0  0  0  0  0
  140.9730  139.3610  149.5370 C   0  0  0  0  0  0  0  0  0  0  0  0
  140.5820  137.9100  149.6840 C   0  0  0  0  0  1  0  0  0  0  0  0
  142.3970  139.5700  149.1010 C   0  0  0  0  0  1  0  0  0  0  0  0
  1  5  1  0  0  0  0
  1  4  1  0  0  0  0
  2 16  1  0  0  0  0
  2  1  1  0  0  0  0
  3  2  2  0  0  0  0
  5  8  1  0  0  0  0
  6 13  1  0  0  0  0
  7  6  2  0  0  0  0
  8  7  1  0  0  0  0
  9  8  2  0  0  0  0
  9 10  1  0  0  0  0
 10 11  2  0  0  0  0
 11  6  1  0  0  0  0
 11 14  1  0  0  0  0
 13 12  1  0  0  0  0
 14 15  1  0  0  0  0
 17 16  1  0  0  0  0
 17 18  1  0  0  0  0
 18 19  2  0  0  0  0
 18 20  1  0  0  0  0
 20 21  2  0  0  0  0
 21 22  1  0  0  0  0
 21 23  1  0  0  0  0
 23 24  1  0  0  0  0
 25 24  1  0  0  0  0
 26 27  1  0  0  0  0
 26 25  2  0  0  0  0
 28 26  1  0  0  0  0
M  END
>  <MODEL>
8

>  <REMARK>
 VINA RESULT:    -5.915      6.393     11.598
 INTER + INTRA:         -10.933
 INTER:                  -9.546
 INTRA:                  -1.387
 UNBOUND:                -1.387
  Name = CHEMBL4225800
  15 active torsions:
  status: ('A' for Active; 'I' for Inactive)
    1  A    between atoms: C_1  and  O_2
    2  A    between atoms: O_2  and  C_3
    3  A    between atoms: C_5  and  C_6
    4  A    between atoms: C_6  and  N_7
    5  A    between atoms: C_8  and  C_10
    6  A    between atoms: C_10  and  O_11
    7  A    between atoms: O_11  and  C_12
    8  A    between atoms: C_12  and  C_14
    9  A    between atoms: C_15  and  C_16
   10  A    between atoms: C_15  and  C_17
   11  A    between atoms: C_17  and  C_18
   12  A    between atoms: C_18  and  C_19
   13  A    between atoms: C_20  and  C_21
   14  A    between atoms: C_20  and  C_22
   15  A    between atoms: C_25  and  O_26
                            x       y       z     vdW  Elec       q    Type
                         _______ _______ _______ _____ _____    ______ ____

>  <TORSDO>
F 11

>  <SCORE>
-5.915

>  <RMSD_LB>
6.393

>  <RMSD_UB>
11.598

$$$$
CHEMBL4225800
 OpenBabel10172500373D

 28 28  0  0  0  0  0  0  0  0999 V2000
  143.9460  136.9610  150.3620 N   0  0  0  0  0  0  0  0  0  0  0  0
  145.2690  136.8150  150.0080 C   0  0  0  0  0  0  0  0  0  0  0  0
  145.6440  136.1750  149.0290 O   0  0  0  0  0  0  0  0  0  0  0  0
  143.7260  137.4970  151.1590 H   0  0  0  0  0  0  0  0  0  0  0  0
  142.8690  136.3610  149.6120 C   0  0  0  0  0  2  0  0  0  0  0  0
  139.0800  136.9100  149.8250 C   0  0  0  0  0  0  0  0  0  0  0  0
  140.3430  136.5270  149.3530 C   0  0  0  0  0  3  0  0  0  0  0  0
  141.4980  136.7120  150.1390 C   0  0  0  0  0  0  0  0  0  0  0  0
  141.3600  137.2650  151.4190 C   0  0  0  0  0  3  0  0  0  0  0  0
  140.1090  137.6530  151.8990 C   0  0  0  0  0  3  0  0  0  0  0  0
  138.9800  137.4770  151.1040 C   0  0  0  0  0  0  0  0  0  0  0  0
  137.9080  135.9440  147.9880 C   0  0  0  0  0  1  0  0  0  0  0  0
  137.9060  136.7890  149.1280 O   0  0  0  0  0  0  0  0  0  0  0  0
  137.7530  137.8680  151.5740 O   0  0  0  0  0  0  0  0  0  0  0  0
  137.2870  137.3240  152.1780 H   0  0  0  0  0  0  0  0  0  0  0  0
  146.2580  137.5070  150.9520 C   0  0  0  0  0  2  0  0  0  0  0  0
  146.7180  136.6560  151.9960 O   0  0  0  0  0  0  0  0  0  0  0  0
  146.1710  136.9470  153.2040 C   0  0  0  0  0  0  0  0  0  0  0  0
  145.3870  136.2460  153.8110 O   0  0  0  0  0  0  0  0  0  0  0  0
  146.6950  138.2620  153.6360 C   0  0  0  0  0  3  0  0  0  0  0  0
  147.7190  138.4810  154.4900 C   0  0  0  0  0  0  0  0  0  0  0  0
  148.5430  137.3850  155.1240 C   0  0  0  0  0  1  0  0  0  0  0  0
  148.1610  139.8890  154.9040 C   0  0  0  0  0  2  0  0  0  0  0  0
  148.3080  140.8770  153.7340 C   0  0  0  0  0  2  0  0  0  0  0  0
  147.0850  141.6350  153.3060 C   0  0  0  0  0  3  0  0  0  0  0  0
  146.7690  141.8260  152.0070 C   0  0  0  0  0  0  0  0  0  0  0  0
  147.5920  141.3090  150.8520 C   0  0  0  0  0  1  0  0  0  0  0  0
  145.5410  142.5870  151.5910 C   0  0  0  0  0  1  0  0  0  0  0  0
  1  4  1  0  0  0  0
  2  1  1  0  0  0  0
  2 16  1  0  0  0  0
  3  2  2  0  0  0  0
  5  8  1  0  0  0  0
  5  1  1  0  0  0  0
  6 11  1  0  0  0  0
  7  6  2  0  0  0  0
  7  8  1  0  0  0  0
  8  9  2  0  0  0  0
  9 10  1  0  0  0  0
 11 14  1  0  0  0  0
 11 10  2  0  0  0  0
 12 13  1  0  0  0  0
 13  6  1  0  0  0  0
 14 15  1  0  0  0  0
 16 17  1  0  0  0  0
 17 18  1  0  0  0  0
 18 20  1  0  0  0  0
 18 19  2  0  0  0  0
 20 21  2  0  0  0  0
 21 23  1  0  0  0  0
 21 22  1  0  0  0  0
 24 23  1  0  0  0  0
 25 24  1  0  0  0  0
 26 25  2  0  0  0  0
 27 26  1  0  0  0  0
 28 26  1  0  0  0  0
M  END
>  <MODEL>
9

>  <REMARK>
 VINA RESULT:    -5.806      3.621     10.043
 INTER + INTRA:         -10.756
 INTER:                  -9.707
 INTRA:                  -1.050
 UNBOUND:                -1.387
  Name = CHEMBL4225800
  15 active torsions:
  status: ('A' for Active; 'I' for Inactive)
    1  A    between atoms: C_1  and  O_2
    2  A    between atoms: O_2  and  C_3
    3  A    between atoms: C_5  and  C_6
    4  A    between atoms: C_6  and  N_7
    5  A    between atoms: C_8  and  C_10
    6  A    between atoms: C_10  and  O_11
    7  A    between atoms: O_11  and  C_12
    8  A    between atoms: C_12  and  C_14
    9  A    between atoms: C_15  and  C_16
   10  A    between atoms: C_15  and  C_17
   11  A    between atoms: C_17  and  C_18
   12  A    between atoms: C_18  and  C_19
   13  A    between atoms: C_20  and  C_21
   14  A    between atoms: C_20  and  C_22
   15  A    between atoms: C_25  and  O_26
                            x       y       z     vdW  Elec       q    Type
                         _______ _______ _______ _____ _____    ______ ____

>  <TORSDO>
F 11

>  <SCORE>
-5.806

>  <RMSD_LB>
3.621

>  <RMSD_UB>
10.043

$$$$
