CHEMBL1893905
 OpenBabel10162523453D

 26 27  0  0  0  0  0  0  0  0999 V2000
  135.4650  135.0900  153.9570 N   0  0  0  0  0  0  0  0  0  0  0  0
  134.9940  135.3690  155.2170 C   0  0  0  0  0  0  0  0  0  0  0  0
  134.0310  134.8110  155.7310 O   0  0  0  0  0  0  0  0  0  0  0  0
  136.1940  135.6330  153.5810 H   0  0  0  0  0  0  0  0  0  0  0  0
  134.9100  134.0100  153.1750 C   0  0  0  0  0  2  0  0  0  0  0  0
  135.7450  134.4680  148.9430 C   0  0  0  0  0  0  0  0  0  0  0  0
  136.5110  135.1430  149.9040 C   0  0  0  0  0  3  0  0  0  0  0  0
  136.2430  135.0040  151.2720 C   0  0  0  0  0  3  0  0  0  0  0  0
  135.1930  134.1960  151.7070 C   0  0  0  0  0  0  0  0  0  0  0  0
  134.4180  133.5320  150.7450 C   0  0  0  0  0  3  0  0  0  0  0  0
  134.6880  133.6500  149.3740 C   0  0  0  0  0  0  0  0  0  0  0  0
  135.4720  135.8560  147.0310 C   0  0  0  0  0  1  0  0  0  0  0  0
  135.9370  134.6350  147.5950 O   0  0  0  0  0  0  0  0  0  0  0  0
  133.8100  132.9460  148.5900 O   0  0  0  0  0  0  0  0  0  0  0  0
  132.6040  133.6050  148.2280 C   0  0  0  0  0  1  0  0  0  0  0  0
  135.7630  136.4660  155.9270 C   0  0  0  0  0  2  0  0  0  0  0  0
  137.2230  136.4700  155.4960 C   0  0  0  0  0  2  0  0  0  0  0  0
  137.6410  137.8200  154.9410 C   0  0  0  0  0  0  0  0  0  0  0  0
  137.0990  138.8700  155.2830 O   0  0  0  0  0  0  0  0  0  0  0  0
  138.7500  137.8490  153.9490 C   0  0  0  0  0  0  0  0  0  0  0  0
  138.4580  137.6640  152.5940 C   0  0  0  0  0  3  0  0  0  0  0  0
  139.4880  137.6540  151.6500 C   0  0  0  0  0  3  0  0  0  0  0  0
  140.8170  137.8420  152.0500 C   0  0  0  0  0  0  0  0  0  0  0  0
  141.9380  137.8310  151.0530 C   0  0  0  0  0  1  0  0  0  0  0  0
  141.1000  138.0460  153.4060 C   0  0  0  0  0  3  0  0  0  0  0  0
  140.0750  138.0490  154.3530 C   0  0  0  0  0  3  0  0  0  0  0  0
  1  2  1  0  0  0  0
  2  3  2  0  0  0  0
  2 16  1  0  0  0  0
  4  1  1  0  0  0  0
  5  1  1  0  0  0  0
  6 11  2  0  0  0  0
  6  7  1  0  0  0  0
  7  8  2  0  0  0  0
  8  9  1  0  0  0  0
  9  5  1  0  0  0  0
 10  9  2  0  0  0  0
 11 10  1  0  0  0  0
 12 13  1  0  0  0  0
 13  6  1  0  0  0  0
 14 11  1  0  0  0  0
 15 14  1  0  0  0  0
 17 16  1  0  0  0  0
 18 19  2  0  0  0  0
 18 17  1  0  0  0  0
 20 26  1  0  0  0  0
 20 18  1  0  0  0  0
 21 20  2  0  0  0  0
 22 23  2  0  0  0  0
 22 21  1  0  0  0  0
 23 25  1  0  0  0  0
 24 23  1  0  0  0  0
 25 26  2  0  0  0  0
M  END
>  <MODEL>
1

>  <REMARK>
 VINA RESULT:    -7.632      0.000      0.000
 INTER + INTRA:         -12.086
 INTER:                 -10.833
 INTRA:                  -1.253
 UNBOUND:                -0.884
  Name = CHEMBL1893905
  11 active torsions:
  status: ('A' for Active; 'I' for Inactive)
    1  A    between atoms: C_1  and  O_2
    2  A    between atoms: O_2  and  C_3
    3  A    between atoms: C_6  and  C_7
    4  A    between atoms: C_7  and  N_8
    5  A    between atoms: C_9  and  C_11
    6  A    between atoms: C_11  and  C_12
    7  A    between atoms: C_12  and  C_13
    8  A    between atoms: C_13  and  C_15
    9  A    between atoms: C_18  and  C_19
   10  A    between atoms: C_23  and  O_24
   11  A    between atoms: O_24  and  C_25
                            x       y       z     vdW  Elec       q    Type
                         _______ _______ _______ _____ _____    ______ ____

>  <TORSDO>
F 8

>  <SCORE>
-7.632

>  <RMSD_LB>
0.000

>  <RMSD_UB>
0.000

$$$$
CHEMBL1893905
 OpenBabel10162523453D

 26 27  0  0  0  0  0  0  0  0999 V2000
  147.2900  140.0280  155.0310 N   0  0  0  0  0  0  0  0  0  0  0  0
  148.3800  140.0530  154.1950 C   0  0  0  0  0  0  0  0  0  0  0  0
  148.8730  139.0570  153.6780 O   0  0  0  0  0  0  0  0  0  0  0  0
  146.9980  140.8590  155.4700 H   0  0  0  0  0  0  0  0  0  0  0  0
  146.5650  138.8030  155.2760 C   0  0  0  0  0  2  0  0  0  0  0  0
  142.9680  138.5110  152.8680 C   0  0  0  0  0  0  0  0  0  0  0  0
  144.2180  138.1570  152.3410 C   0  0  0  0  0  3  0  0  0  0  0  0
  145.3840  138.2540  153.1100 C   0  0  0  0  0  3  0  0  0  0  0  0
  145.3260  138.7220  154.4230 C   0  0  0  0  0  0  0  0  0  0  0  0
  144.0780  139.0890  154.9470 C   0  0  0  0  0  3  0  0  0  0  0  0
  142.9020  138.9810  154.1900 C   0  0  0  0  0  0  0  0  0  0  0  0
  141.3860  137.2230  151.6470 C   0  0  0  0  0  1  0  0  0  0  0  0
  141.8190  138.4930  152.1210 O   0  0  0  0  0  0  0  0  0  0  0  0
  141.7870  139.4080  154.8650 O   0  0  0  0  0  0  0  0  0  0  0  0
  141.0170  138.4120  155.5240 C   0  0  0  0  0  1  0  0  0  0  0  0
  148.9500  141.4400  153.9770 C   0  0  0  0  0  2  0  0  0  0  0  0
  148.5030  142.0050  152.6360 C   0  0  0  0  0  2  0  0  0  0  0  0
  146.9910  141.9980  152.4990 C   0  0  0  0  0  0  0  0  0  0  0  0
  146.2530  142.5550  153.3100 O   0  0  0  0  0  0  0  0  0  0  0  0
  146.4040  141.2860  151.3310 C   0  0  0  0  0  0  0  0  0  0  0  0
  145.0500  141.4670  151.0340 C   0  0  0  0  0  3  0  0  0  0  0  0
  144.4700  140.7830  149.9620 C   0  0  0  0  0  3  0  0  0  0  0  0
  145.2430  139.9230  149.1700 C   0  0  0  0  0  0  0  0  0  0  0  0
  144.6390  139.1750  148.0180 C   0  0  0  0  0  1  0  0  0  0  0  0
  146.6020  139.7610  149.4620 C   0  0  0  0  0  3  0  0  0  0  0  0
  147.1830  140.4370  150.5360 C   0  0  0  0  0  3  0  0  0  0  0  0
  1  5  1  0  0  0  0
  1  4  1  0  0  0  0
  2  1  1  0  0  0  0
  3  2  2  0  0  0  0
  6 11  1  0  0  0  0
  7  6  2  0  0  0  0
  7  8  1  0  0  0  0
  8  9  2  0  0  0  0
  9 10  1  0  0  0  0
  9  5  1  0  0  0  0
 11 14  1  0  0  0  0
 11 10  2  0  0  0  0
 12 13  1  0  0  0  0
 13  6  1  0  0  0  0
 14 15  1  0  0  0  0
 16  2  1  0  0  0  0
 17 16  1  0  0  0  0
 18 17  1  0  0  0  0
 18 19  2  0  0  0  0
 20 18  1  0  0  0  0
 21 20  1  0  0  0  0
 22 21  2  0  0  0  0
 23 25  2  0  0  0  0
 23 22  1  0  0  0  0
 24 23  1  0  0  0  0
 25 26  1  0  0  0  0
 26 20  2  0  0  0  0
M  END
>  <MODEL>
2

>  <REMARK>
 VINA RESULT:    -7.565      6.577     10.519
 INTER + INTRA:         -11.988
 INTER:                  -9.776
 INTRA:                  -2.211
 UNBOUND:                -0.884
  Name = CHEMBL1893905
  11 active torsions:
  status: ('A' for Active; 'I' for Inactive)
    1  A    between atoms: C_1  and  O_2
    2  A    between atoms: O_2  and  C_3
    3  A    between atoms: C_6  and  C_7
    4  A    between atoms: C_7  and  N_8
    5  A    between atoms: C_9  and  C_11
    6  A    between atoms: C_11  and  C_12
    7  A    between atoms: C_12  and  C_13
    8  A    between atoms: C_13  and  C_15
    9  A    between atoms: C_18  and  C_19
   10  A    between atoms: C_23  and  O_24
   11  A    between atoms: O_24  and  C_25
                            x       y       z     vdW  Elec       q    Type
                         _______ _______ _______ _____ _____    ______ ____

>  <TORSDO>
F 8

>  <SCORE>
-7.565

>  <RMSD_LB>
6.577

>  <RMSD_UB>
10.519

$$$$
CHEMBL1893905
 OpenBabel10162523453D

 26 27  0  0  0  0  0  0  0  0999 V2000
  136.8260  136.6720  151.5920 N   0  0  0  0  0  0  0  0  0  0  0  0
  136.2690  135.5510  151.0240 C   0  0  0  0  0  0  0  0  0  0  0  0
  136.5270  135.1510  149.8950 O   0  0  0  0  0  0  0  0  0  0  0  0
  136.5110  136.9750  152.4740 H   0  0  0  0  0  0  0  0  0  0  0  0
  137.8660  137.4110  150.9170 C   0  0  0  0  0  2  0  0  0  0  0  0
  141.2590  138.1390  153.5200 C   0  0  0  0  0  0  0  0  0  0  0  0
  141.4440  137.6860  152.2070 C   0  0  0  0  0  3  0  0  0  0  0  0
  140.3530  137.4440  151.3620 C   0  0  0  0  0  3  0  0  0  0  0  0
  139.0500  137.6370  151.8200 C   0  0  0  0  0  0  0  0  0  0  0  0
  138.8640  138.0770  153.1390 C   0  0  0  0  0  3  0  0  0  0  0  0
  139.9490  138.3390  153.9870 C   0  0  0  0  0  0  0  0  0  0  0  0
  143.3740  139.1400  153.9440 C   0  0  0  0  0  1  0  0  0  0  0  0
  142.3010  138.3210  154.3930 O   0  0  0  0  0  0  0  0  0  0  0  0
  139.5670  138.7390  155.2430 O   0  0  0  0  0  0  0  0  0  0  0  0
  139.5810  137.7480  156.2620 C   0  0  0  0  0  1  0  0  0  0  0  0
  135.2680  134.8470  151.9190 C   0  0  0  0  0  2  0  0  0  0  0  0
  135.8010  134.7290  153.3400 C   0  0  0  0  0  2  0  0  0  0  0  0
  134.6970  134.8900  154.3700 C   0  0  0  0  0  0  0  0  0  0  0  0
  133.5050  134.8720  154.0660 O   0  0  0  0  0  0  0  0  0  0  0  0
  135.0950  135.0730  155.7910 C   0  0  0  0  0  0  0  0  0  0  0  0
  136.3090  135.7040  156.0830 C   0  0  0  0  0  3  0  0  0  0  0  0
  136.7190  135.8570  157.4100 C   0  0  0  0  0  3  0  0  0  0  0  0
  135.9120  135.3920  158.4580 C   0  0  0  0  0  0  0  0  0  0  0  0
  136.3360  135.5420  159.8890 C   0  0  0  0  0  1  0  0  0  0  0  0
  134.6900  134.7790  158.1590 C   0  0  0  0  0  3  0  0  0  0  0  0
  134.2810  134.6180  156.8350 C   0  0  0  0  0  3  0  0  0  0  0  0
  1  4  1  0  0  0  0
  2  1  1  0  0  0  0
  2 16  1  0  0  0  0
  3  2  2  0  0  0  0
  5  1  1  0  0  0  0
  5  9  1  0  0  0  0
  6 11  1  0  0  0  0
  6 13  1  0  0  0  0
  7  6  2  0  0  0  0
  8  9  2  0  0  0  0
  8  7  1  0  0  0  0
  9 10  1  0  0  0  0
 10 11  2  0  0  0  0
 11 14  1  0  0  0  0
 12 13  1  0  0  0  0
 14 15  1  0  0  0  0
 16 17  1  0  0  0  0
 17 18  1  0  0  0  0
 18 20  1  0  0  0  0
 19 18  2  0  0  0  0
 20 21  2  0  0  0  0
 20 26  1  0  0  0  0
 21 22  1  0  0  0  0
 22 23  2  0  0  0  0
 23 24  1  0  0  0  0
 25 23  1  0  0  0  0
 26 25  2  0  0  0  0
M  END
>  <MODEL>
3

>  <REMARK>
 VINA RESULT:    -7.565      2.141      7.218
 INTER + INTRA:         -11.987
 INTER:                 -11.019
 INTRA:                  -0.968
 UNBOUND:                -0.884
  Name = CHEMBL1893905
  11 active torsions:
  status: ('A' for Active; 'I' for Inactive)
    1  A    between atoms: C_1  and  O_2
    2  A    between atoms: O_2  and  C_3
    3  A    between atoms: C_6  and  C_7
    4  A    between atoms: C_7  and  N_8
    5  A    between atoms: C_9  and  C_11
    6  A    between atoms: C_11  and  C_12
    7  A    between atoms: C_12  and  C_13
    8  A    between atoms: C_13  and  C_15
    9  A    between atoms: C_18  and  C_19
   10  A    between atoms: C_23  and  O_24
   11  A    between atoms: O_24  and  C_25
                            x       y       z     vdW  Elec       q    Type
                         _______ _______ _______ _____ _____    ______ ____

>  <TORSDO>
F 8

>  <SCORE>
-7.565

>  <RMSD_LB>
2.141

>  <RMSD_UB>
7.218

$$$$
CHEMBL1893905
 OpenBabel10162523453D

 26 27  0  0  0  0  0  0  0  0999 V2000
  136.2460  135.5520  154.0320 N   0  0  0  0  0  0  0  0  0  0  0  0
  136.5160  135.9650  155.3140 C   0  0  0  0  0  0  0  0  0  0  0  0
  135.8840  135.6050  156.3010 O   0  0  0  0  0  0  0  0  0  0  0  0
  136.7470  135.9440  153.2810 H   0  0  0  0  0  0  0  0  0  0  0  0
  135.2410  134.5490  153.7670 C   0  0  0  0  0  2  0  0  0  0  0  0
  134.8160  133.8980  149.4990 C   0  0  0  0  0  0  0  0  0  0  0  0
  133.8890  133.3630  150.4050 C   0  0  0  0  0  3  0  0  0  0  0  0
  134.0230  133.5650  151.7840 C   0  0  0  0  0  3  0  0  0  0  0  0
  135.0980  134.2960  152.2900 C   0  0  0  0  0  0  0  0  0  0  0  0
  136.0330  134.8200  151.3850 C   0  0  0  0  0  3  0  0  0  0  0  0
  135.9000  134.6390  150.0010 C   0  0  0  0  0  0  0  0  0  0  0  0
  133.5270  133.9870  147.5030 C   0  0  0  0  0  1  0  0  0  0  0  0
  134.7520  133.6630  148.1500 O   0  0  0  0  0  0  0  0  0  0  0  0
  136.9220  135.2050  149.2830 O   0  0  0  0  0  0  0  0  0  0  0  0
  136.8060  136.5900  148.9860 C   0  0  0  0  0  1  0  0  0  0  0  0
  137.6690  136.9440  155.4100 C   0  0  0  0  0  2  0  0  0  0  0  0
  137.7850  137.7710  154.1380 C   0  0  0  0  0  2  0  0  0  0  0  0
  139.1460  138.4340  154.0200 C   0  0  0  0  0  0  0  0  0  0  0  0
  139.5200  139.3130  154.7940 O   0  0  0  0  0  0  0  0  0  0  0  0
  140.0440  137.9850  152.9220 C   0  0  0  0  0  0  0  0  0  0  0  0
  139.4930  137.6830  151.6720 C   0  0  0  0  0  3  0  0  0  0  0  0
  140.3130  137.2280  150.6360 C   0  0  0  0  0  3  0  0  0  0  0  0
  141.6920  137.0830  150.8360 C   0  0  0  0  0  0  0  0  0  0  0  0
  142.5890  136.5910  149.7390 C   0  0  0  0  0  1  0  0  0  0  0  0
  142.2390  137.4060  152.0840 C   0  0  0  0  0  3  0  0  0  0  0  0
  141.4230  137.8530  153.1230 C   0  0  0  0  0  3  0  0  0  0  0  0
  1  2  1  0  0  0  0
  2 16  1  0  0  0  0
  2  3  2  0  0  0  0
  4  1  1  0  0  0  0
  5  1  1  0  0  0  0
  6 11  2  0  0  0  0
  6  7  1  0  0  0  0
  7  8  2  0  0  0  0
  8  9  1  0  0  0  0
  9  5  1  0  0  0  0
 10  9  2  0  0  0  0
 11 10  1  0  0  0  0
 12 13  1  0  0  0  0
 13  6  1  0  0  0  0
 14 11  1  0  0  0  0
 15 14  1  0  0  0  0
 17 16  1  0  0  0  0
 18 17  1  0  0  0  0
 18 19  2  0  0  0  0
 20 26  1  0  0  0  0
 20 18  1  0  0  0  0
 21 20  2  0  0  0  0
 22 23  2  0  0  0  0
 22 21  1  0  0  0  0
 23 25  1  0  0  0  0
 24 23  1  0  0  0  0
 25 26  2  0  0  0  0
M  END
>  <MODEL>
4

>  <REMARK>
 VINA RESULT:    -7.371      1.229      2.243
 INTER + INTRA:         -11.702
 INTER:                 -10.588
 INTRA:                  -1.115
 UNBOUND:                -0.884
  Name = CHEMBL1893905
  11 active torsions:
  status: ('A' for Active; 'I' for Inactive)
    1  A    between atoms: C_1  and  O_2
    2  A    between atoms: O_2  and  C_3
    3  A    between atoms: C_6  and  C_7
    4  A    between atoms: C_7  and  N_8
    5  A    between atoms: C_9  and  C_11
    6  A    between atoms: C_11  and  C_12
    7  A    between atoms: C_12  and  C_13
    8  A    between atoms: C_13  and  C_15
    9  A    between atoms: C_18  and  C_19
   10  A    between atoms: C_23  and  O_24
   11  A    between atoms: O_24  and  C_25
                            x       y       z     vdW  Elec       q    Type
                         _______ _______ _______ _____ _____    ______ ____

>  <TORSDO>
F 8

>  <SCORE>
-7.371

>  <RMSD_LB>
1.229

>  <RMSD_UB>
2.243

$$$$
CHEMBL1893905
 OpenBabel10162523453D

 26 27  0  0  0  0  0  0  0  0999 V2000
  144.6160  140.4420  153.0230 N   0  0  0  0  0  0  0  0  0  0  0  0
  145.8310  140.7660  153.5770 C   0  0  0  0  0  0  0  0  0  0  0  0
  146.4240  140.0660  154.3900 O   0  0  0  0  0  0  0  0  0  0  0  0
  144.1630  141.0900  152.4360 H   0  0  0  0  0  0  0  0  0  0  0  0
  143.9910  139.1680  153.2860 C   0  0  0  0  0  2  0  0  0  0  0  0
  141.4310  137.9490  150.0020 C   0  0  0  0  0  0  0  0  0  0  0  0
  142.1170  136.9990  150.7700 C   0  0  0  0  0  3  0  0  0  0  0  0
  142.9490  137.3850  151.8280 C   0  0  0  0  0  3  0  0  0  0  0  0
  143.1250  138.7350  152.1330 C   0  0  0  0  0  0  0  0  0  0  0  0
  142.4490  139.6870  151.3560 C   0  0  0  0  0  3  0  0  0  0  0  0
  141.6000  139.3110  150.3040 C   0  0  0  0  0  0  0  0  0  0  0  0
  141.3240  137.5570  147.6590 C   0  0  0  0  0  1  0  0  0  0  0  0
  140.6630  137.6090  148.9180 O   0  0  0  0  0  0  0  0  0  0  0  0
  141.0480  140.3820  149.6490 O   0  0  0  0  0  0  0  0  0  0  0  0
  139.7190  140.7370  150.0080 C   0  0  0  0  0  1  0  0  0  0  0  0
  146.3800  142.0990  153.1080 C   0  0  0  0  0  2  0  0  0  0  0  0
  147.5200  141.8980  152.1200 C   0  0  0  0  0  2  0  0  0  0  0  0
  147.0280  141.9180  150.6830 C   0  0  0  0  0  0  0  0  0  0  0  0
  147.0810  142.9270  149.9820 O   0  0  0  0  0  0  0  0  0  0  0  0
  146.4680  140.6580  150.1250 C   0  0  0  0  0  0  0  0  0  0  0  0
  147.0080  139.4330  150.5310 C   0  0  0  0  0  3  0  0  0  0  0  0
  146.5190  138.2390  149.9950 C   0  0  0  0  0  3  0  0  0  0  0  0
  145.4780  138.2570  149.0580 C   0  0  0  0  0  0  0  0  0  0  0  0
  144.9420  136.9870  148.4660 C   0  0  0  0  0  1  0  0  0  0  0  0
  144.9290  139.4860  148.6710 C   0  0  0  0  0  3  0  0  0  0  0  0
  145.4190  140.6810  149.1980 C   0  0  0  0  0  3  0  0  0  0  0  0
  1  5  1  0  0  0  0
  1  2  1  0  0  0  0
  2  3  2  0  0  0  0
  4  1  1  0  0  0  0
  6 11  2  0  0  0  0
  6  7  1  0  0  0  0
  7  8  2  0  0  0  0
  8  9  1  0  0  0  0
  9  5  1  0  0  0  0
 10  9  2  0  0  0  0
 11 10  1  0  0  0  0
 12 13  1  0  0  0  0
 13  6  1  0  0  0  0
 14 15  1  0  0  0  0
 14 11  1  0  0  0  0
 16  2  1  0  0  0  0
 17 16  1  0  0  0  0
 18 17  1  0  0  0  0
 19 18  2  0  0  0  0
 20 21  1  0  0  0  0
 20 18  1  0  0  0  0
 22 21  2  0  0  0  0
 23 22  1  0  0  0  0
 24 23  1  0  0  0  0
 25 23  2  0  0  0  0
 25 26  1  0  0  0  0
 26 20  2  0  0  0  0
M  END
>  <MODEL>
5

>  <REMARK>
 VINA RESULT:    -7.144      6.789      9.312
 INTER + INTRA:         -11.369
 INTER:                  -8.986
 INTRA:                  -2.383
 UNBOUND:                -0.884
  Name = CHEMBL1893905
  11 active torsions:
  status: ('A' for Active; 'I' for Inactive)
    1  A    between atoms: C_1  and  O_2
    2  A    between atoms: O_2  and  C_3
    3  A    between atoms: C_6  and  C_7
    4  A    between atoms: C_7  and  N_8
    5  A    between atoms: C_9  and  C_11
    6  A    between atoms: C_11  and  C_12
    7  A    between atoms: C_12  and  C_13
    8  A    between atoms: C_13  and  C_15
    9  A    between atoms: C_18  and  C_19
   10  A    between atoms: C_23  and  O_24
   11  A    between atoms: O_24  and  C_25
                            x       y       z     vdW  Elec       q    Type
                         _______ _______ _______ _____ _____    ______ ____

>  <TORSDO>
F 8

>  <SCORE>
-7.144

>  <RMSD_LB>
6.789

>  <RMSD_UB>
9.312

$$$$
CHEMBL1893905
 OpenBabel10162523453D

 26 27  0  0  0  0  0  0  0  0999 V2000
  138.2610  137.4750  153.4300 N   0  0  0  0  0  0  0  0  0  0  0  0
  137.0470  137.0660  153.9280 C   0  0  0  0  0  0  0  0  0  0  0  0
  136.5990  137.4100  155.0160 O   0  0  0  0  0  0  0  0  0  0  0  0
  138.5890  137.0960  152.5830 H   0  0  0  0  0  0  0  0  0  0  0  0
  139.0620  138.4530  154.1270 C   0  0  0  0  0  2  0  0  0  0  0  0
  143.2490  138.2210  153.0150 C   0  0  0  0  0  0  0  0  0  0  0  0
  142.2530  137.6850  152.1870 C   0  0  0  0  0  3  0  0  0  0  0  0
  140.9000  137.7520  152.5410 C   0  0  0  0  0  3  0  0  0  0  0  0
  140.5140  138.3450  153.7430 C   0  0  0  0  0  0  0  0  0  0  0  0
  141.5110  138.8690  154.5800 C   0  0  0  0  0  3  0  0  0  0  0  0
  142.8670  138.8230  154.2260 C   0  0  0  0  0  0  0  0  0  0  0  0
  145.1550  139.1470  151.9360 C   0  0  0  0  0  1  0  0  0  0  0  0
  144.5860  138.1120  152.7310 O   0  0  0  0  0  0  0  0  0  0  0  0
  143.6910  139.3650  155.1800 O   0  0  0  0  0  0  0  0  0  0  0  0
  143.0870  140.2330  156.1290 C   0  0  0  0  0  1  0  0  0  0  0  0
  136.3020  136.1150  153.0120 C   0  0  0  0  0  2  0  0  0  0  0  0
  135.5940  135.0330  153.8160 C   0  0  0  0  0  2  0  0  0  0  0  0
  134.1150  134.9610  153.4800 C   0  0  0  0  0  0  0  0  0  0  0  0
  133.2390  135.0780  154.3350 O   0  0  0  0  0  0  0  0  0  0  0  0
  133.7360  134.7440  152.0580 C   0  0  0  0  0  0  0  0  0  0  0  0
  133.9850  133.5000  151.4690 C   0  0  0  0  0  3  0  0  0  0  0  0
  133.6670  133.2840  150.1260 C   0  0  0  0  0  3  0  0  0  0  0  0
  133.0870  134.3050  149.3620 C   0  0  0  0  0  0  0  0  0  0  0  0
  132.7430  134.0960  147.9170 C   0  0  0  0  0  1  0  0  0  0  0  0
  132.8230  135.5420  149.9630 C   0  0  0  0  0  3  0  0  0  0  0  0
  133.1460  135.7640  151.3030 C   0  0  0  0  0  3  0  0  0  0  0  0
  1  2  1  0  0  0  0
  1  5  1  0  0  0  0
  2  3  2  0  0  0  0
  4  1  1  0  0  0  0
  6 11  1  0  0  0  0
  7  8  1  0  0  0  0
  7  6  2  0  0  0  0
  8  9  2  0  0  0  0
  9  5  1  0  0  0  0
  9 10  1  0  0  0  0
 11 10  2  0  0  0  0
 11 14  1  0  0  0  0
 12 13  1  0  0  0  0
 13  6  1  0  0  0  0
 14 15  1  0  0  0  0
 16 17  1  0  0  0  0
 16  2  1  0  0  0  0
 18 17  1  0  0  0  0
 18 19  2  0  0  0  0
 20 18  1  0  0  0  0
 21 20  1  0  0  0  0
 22 21  2  0  0  0  0
 23 25  2  0  0  0  0
 23 22  1  0  0  0  0
 24 23  1  0  0  0  0
 25 26  1  0  0  0  0
 26 20  2  0  0  0  0
M  END
>  <MODEL>
6

>  <REMARK>
 VINA RESULT:    -7.066      2.821      8.188
 INTER + INTRA:         -11.254
 INTER:                 -10.524
 INTRA:                  -0.730
 UNBOUND:                -0.884
  Name = CHEMBL1893905
  11 active torsions:
  status: ('A' for Active; 'I' for Inactive)
    1  A    between atoms: C_1  and  O_2
    2  A    between atoms: O_2  and  C_3
    3  A    between atoms: C_6  and  C_7
    4  A    between atoms: C_7  and  N_8
    5  A    between atoms: C_9  and  C_11
    6  A    between atoms: C_11  and  C_12
    7  A    between atoms: C_12  and  C_13
    8  A    between atoms: C_13  and  C_15
    9  A    between atoms: C_18  and  C_19
   10  A    between atoms: C_23  and  O_24
   11  A    between atoms: O_24  and  C_25
                            x       y       z     vdW  Elec       q    Type
                         _______ _______ _______ _____ _____    ______ ____

>  <TORSDO>
F 8

>  <SCORE>
-7.066

>  <RMSD_LB>
2.821

>  <RMSD_UB>
8.188

$$$$
CHEMBL1893905
 OpenBabel10162523453D

 26 27  0  0  0  0  0  0  0  0999 V2000
  145.5930  135.1550  149.5080 N   0  0  0  0  0  0  0  0  0  0  0  0
  145.4140  135.4720  148.1830 C   0  0  0  0  0  0  0  0  0  0  0  0
  146.1820  136.1750  147.5350 O   0  0  0  0  0  0  0  0  0  0  0  0
  144.8940  134.6500  149.9830 H   0  0  0  0  0  0  0  0  0  0  0  0
  146.7890  135.5470  150.2150 C   0  0  0  0  0  2  0  0  0  0  0  0
  146.0350  138.7020  153.0950 C   0  0  0  0  0  0  0  0  0  0  0  0
  145.9260  137.3530  153.4610 C   0  0  0  0  0  3  0  0  0  0  0  0
  146.1620  136.3290  152.5350 C   0  0  0  0  0  3  0  0  0  0  0  0
  146.5010  136.6340  151.2170 C   0  0  0  0  0  0  0  0  0  0  0  0
  146.5970  137.9840  150.8470 C   0  0  0  0  0  3  0  0  0  0  0  0
  146.3780  139.0170  151.7700 C   0  0  0  0  0  0  0  0  0  0  0  0
  144.6260  139.5400  154.8170 C   0  0  0  0  0  1  0  0  0  0  0  0
  145.7440  139.7270  153.9580 O   0  0  0  0  0  0  0  0  0  0  0  0
  146.4950  140.2660  151.2170 O   0  0  0  0  0  0  0  0  0  0  0  0
  145.9880  140.4330  149.8990 C   0  0  0  0  0  1  0  0  0  0  0  0
  144.1510  134.8910  147.5810 C   0  0  0  0  0  2  0  0  0  0  0  0
  143.0220  134.8740  148.6010 C   0  0  0  0  0  2  0  0  0  0  0  0
  142.2970  136.2080  148.6590 C   0  0  0  0  0  0  0  0  0  0  0  0
  142.0230  136.8530  147.6490 O   0  0  0  0  0  0  0  0  0  0  0  0
  141.9140  136.7310  149.9980 C   0  0  0  0  0  0  0  0  0  0  0  0
  140.5650  136.9780  150.2730 C   0  0  0  0  0  3  0  0  0  0  0  0
  140.1860  137.5000  151.5120 C   0  0  0  0  0  3  0  0  0  0  0  0
  141.1500  137.7680  152.4930 C   0  0  0  0  0  0  0  0  0  0  0  0
  140.7650  138.3330  153.8280 C   0  0  0  0  0  1  0  0  0  0  0  0
  142.4970  137.5000  152.2180 C   0  0  0  0  0  3  0  0  0  0  0  0
  142.8800  136.9860  150.9790 C   0  0  0  0  0  3  0  0  0  0  0  0
  1  4  1  0  0  0  0
  1  5  1  0  0  0  0
  2  1  1  0  0  0  0
  3  2  2  0  0  0  0
  5  9  1  0  0  0  0
  6  7  1  0  0  0  0
  6 13  1  0  0  0  0
  8  7  2  0  0  0  0
  9  8  1  0  0  0  0
 10  9  2  0  0  0  0
 10 11  1  0  0  0  0
 11  6  2  0  0  0  0
 13 12  1  0  0  0  0
 14 11  1  0  0  0  0
 15 14  1  0  0  0  0
 16  2  1  0  0  0  0
 16 17  1  0  0  0  0
 17 18  1  0  0  0  0
 18 20  1  0  0  0  0
 19 18  2  0  0  0  0
 20 21  2  0  0  0  0
 20 26  1  0  0  0  0
 21 22  1  0  0  0  0
 22 23  2  0  0  0  0
 23 24  1  0  0  0  0
 25 23  1  0  0  0  0
 26 25  2  0  0  0  0
M  END
>  <MODEL>
7

>  <REMARK>
 VINA RESULT:    -6.946      6.139     10.373
 INTER + INTRA:         -11.079
 INTER:                  -9.194
 INTRA:                  -1.885
 UNBOUND:                -0.884
  Name = CHEMBL1893905
  11 active torsions:
  status: ('A' for Active; 'I' for Inactive)
    1  A    between atoms: C_1  and  O_2
    2  A    between atoms: O_2  and  C_3
    3  A    between atoms: C_6  and  C_7
    4  A    between atoms: C_7  and  N_8
    5  A    between atoms: C_9  and  C_11
    6  A    between atoms: C_11  and  C_12
    7  A    between atoms: C_12  and  C_13
    8  A    between atoms: C_13  and  C_15
    9  A    between atoms: C_18  and  C_19
   10  A    between atoms: C_23  and  O_24
   11  A    between atoms: O_24  and  C_25
                            x       y       z     vdW  Elec       q    Type
                         _______ _______ _______ _____ _____    ______ ____

>  <TORSDO>
F 8

>  <SCORE>
-6.946

>  <RMSD_LB>
6.139

>  <RMSD_UB>
10.373

$$$$
CHEMBL1893905
 OpenBabel10162523453D

 26 27  0  0  0  0  0  0  0  0999 V2000
  133.8470  133.7140  149.7860 N   0  0  0  0  0  0  0  0  0  0  0  0
  134.6730  134.1140  150.8090 C   0  0  0  0  0  0  0  0  0  0  0  0
  135.8630  134.3750  150.6710 O   0  0  0  0  0  0  0  0  0  0  0  0
  132.9220  133.4480  149.9870 H   0  0  0  0  0  0  0  0  0  0  0  0
  134.3140  133.6810  148.4200 C   0  0  0  0  0  2  0  0  0  0  0  0
  133.4860  137.4370  146.4160 C   0  0  0  0  0  0  0  0  0  0  0  0
  132.4620  136.7170  147.0460 C   0  0  0  0  0  3  0  0  0  0  0  0
  132.7210  135.5010  147.6900 C   0  0  0  0  0  3  0  0  0  0  0  0
  134.0110  134.9710  147.7060 C   0  0  0  0  0  0  0  0  0  0  0  0
  135.0340  135.6850  147.0640 C   0  0  0  0  0  3  0  0  0  0  0  0
  134.7890  136.9120  146.4310 C   0  0  0  0  0  0  0  0  0  0  0  0
  132.9450  138.4570  144.3370 C   0  0  0  0  0  1  0  0  0  0  0  0
  133.2550  138.5950  145.7190 O   0  0  0  0  0  0  0  0  0  0  0  0
  135.9070  137.4460  145.8420 O   0  0  0  0  0  0  0  0  0  0  0  0
  136.4000  136.7830  144.6850 C   0  0  0  0  0  1  0  0  0  0  0  0
  133.9830  134.1860  152.1570 C   0  0  0  0  0  2  0  0  0  0  0  0
  135.0030  134.2130  153.2870 C   0  0  0  0  0  2  0  0  0  0  0  0
  134.8510  135.4530  154.1510 C   0  0  0  0  0  0  0  0  0  0  0  0
  134.3930  136.5080  153.7150 O   0  0  0  0  0  0  0  0  0  0  0  0
  135.2760  135.3620  155.5730 C   0  0  0  0  0  0  0  0  0  0  0  0
  134.4390  134.7270  156.4960 C   0  0  0  0  0  3  0  0  0  0  0  0
  134.8040  134.6590  157.8430 C   0  0  0  0  0  3  0  0  0  0  0  0
  136.0150  135.2150  158.2780 C   0  0  0  0  0  0  0  0  0  0  0  0
  136.4220  135.1580  159.7210 C   0  0  0  0  0  1  0  0  0  0  0  0
  136.8570  135.8330  157.3450 C   0  0  0  0  0  3  0  0  0  0  0  0
  136.4920  135.9090  156.0000 C   0  0  0  0  0  3  0  0  0  0  0  0
  1  4  1  0  0  0  0
  1  2  1  0  0  0  0
  2 16  1  0  0  0  0
  3  2  2  0  0  0  0
  5  1  1  0  0  0  0
  6 11  2  0  0  0  0
  6  7  1  0  0  0  0
  7  8  2  0  0  0  0
  8  9  1  0  0  0  0
  9  5  1  0  0  0  0
 10  9  2  0  0  0  0
 11 10  1  0  0  0  0
 12 13  1  0  0  0  0
 13  6  1  0  0  0  0
 14 11  1  0  0  0  0
 15 14  1  0  0  0  0
 16 17  1  0  0  0  0
 17 18  1  0  0  0  0
 18 20  1  0  0  0  0
 19 18  2  0  0  0  0
 20 26  2  0  0  0  0
 20 21  1  0  0  0  0
 21 22  2  0  0  0  0
 22 23  1  0  0  0  0
 23 24  1  0  0  0  0
 25 23  2  0  0  0  0
 26 25  1  0  0  0  0
M  END
>  <MODEL>
8

>  <REMARK>
 VINA RESULT:    -6.789      3.471      5.575
 INTER + INTRA:         -10.847
 INTER:                 -10.030
 INTRA:                  -0.817
 UNBOUND:                -0.884
  Name = CHEMBL1893905
  11 active torsions:
  status: ('A' for Active; 'I' for Inactive)
    1  A    between atoms: C_1  and  O_2
    2  A    between atoms: O_2  and  C_3
    3  A    between atoms: C_6  and  C_7
    4  A    between atoms: C_7  and  N_8
    5  A    between atoms: C_9  and  C_11
    6  A    between atoms: C_11  and  C_12
    7  A    between atoms: C_12  and  C_13
    8  A    between atoms: C_13  and  C_15
    9  A    between atoms: C_18  and  C_19
   10  A    between atoms: C_23  and  O_24
   11  A    between atoms: O_24  and  C_25
                            x       y       z     vdW  Elec       q    Type
                         _______ _______ _______ _____ _____    ______ ____

>  <TORSDO>
F 8

>  <SCORE>
-6.789

>  <RMSD_LB>
3.471

>  <RMSD_UB>
5.575

$$$$
CHEMBL1893905
 OpenBabel10162523453D

 26 27  0  0  0  0  0  0  0  0999 V2000
  138.5870  137.1430  150.9330 N   0  0  0  0  0  0  0  0  0  0  0  0
  139.0020  138.4280  151.1860 C   0  0  0  0  0  0  0  0  0  0  0  0
  139.0960  139.3010  150.3300 O   0  0  0  0  0  0  0  0  0  0  0  0
  138.6120  136.4750  151.6560 H   0  0  0  0  0  0  0  0  0  0  0  0
  138.1150  136.7540  149.6250 C   0  0  0  0  0  2  0  0  0  0  0  0
  134.1460  135.0220  149.8910 C   0  0  0  0  0  0  0  0  0  0  0  0
  135.2610  134.3500  150.4110 C   0  0  0  0  0  3  0  0  0  0  0  0
  136.5460  134.9010  150.3240 C   0  0  0  0  0  3  0  0  0  0  0  0
  136.7450  136.1320  149.7010 C   0  0  0  0  0  0  0  0  0  0  0  0
  135.6320  136.7990  149.1680 C   0  0  0  0  0  3  0  0  0  0  0  0
  134.3390  136.2650  149.2640 C   0  0  0  0  0  0  0  0  0  0  0  0
  132.5560  133.6190  148.8160 C   0  0  0  0  0  1  0  0  0  0  0  0
  132.8870  134.4810  149.8990 O   0  0  0  0  0  0  0  0  0  0  0  0
  133.3870  137.0490  148.6650 O   0  0  0  0  0  0  0  0  0  0  0  0
  133.3060  136.9890  147.2480 C   0  0  0  0  0  1  0  0  0  0  0  0
  139.3650  138.6780  152.6360 C   0  0  0  0  0  2  0  0  0  0  0  0
  138.5020  137.8350  153.5640 C   0  0  0  0  0  2  0  0  0  0  0  0
  138.8440  138.0780  155.0230 C   0  0  0  0  0  0  0  0  0  0  0  0
  139.7590  138.8220  155.3710 O   0  0  0  0  0  0  0  0  0  0  0  0
  138.0260  137.3800  156.0520 C   0  0  0  0  0  0  0  0  0  0  0  0
  137.1750  136.3430  155.6570 C   0  0  0  0  0  3  0  0  0  0  0  0
  136.3740  135.6950  156.6020 C   0  0  0  0  0  3  0  0  0  0  0  0
  136.4260  136.0710  157.9510 C   0  0  0  0  0  0  0  0  0  0  0  0
  135.5710  135.3920  158.9800 C   0  0  0  0  0  1  0  0  0  0  0  0
  137.2950  137.0970  158.3420 C   0  0  0  0  0  3  0  0  0  0  0  0
  138.0910  137.7500  157.4000 C   0  0  0  0  0  3  0  0  0  0  0  0
  1  2  1  0  0  0  0
  1  4  1  0  0  0  0
  2 16  1  0  0  0  0
  3  2  2  0  0  0  0
  5  9  1  0  0  0  0
  5  1  1  0  0  0  0
  6 13  1  0  0  0  0
  6  7  1  0  0  0  0
  8  7  2  0  0  0  0
  9  8  1  0  0  0  0
 10 11  1  0  0  0  0
 10  9  2  0  0  0  0
 11  6  2  0  0  0  0
 12 13  1  0  0  0  0
 14 11  1  0  0  0  0
 15 14  1  0  0  0  0
 16 17  1  0  0  0  0
 17 18  1  0  0  0  0
 18 19  2  0  0  0  0
 18 20  1  0  0  0  0
 20 26  1  0  0  0  0
 21 20  2  0  0  0  0
 21 22  1  0  0  0  0
 22 23  2  0  0  0  0
 23 25  1  0  0  0  0
 23 24  1  0  0  0  0
 26 25  2  0  0  0  0
M  END
>  <MODEL>
9

>  <REMARK>
 VINA RESULT:    -6.716      2.372      4.860
 INTER + INTRA:         -10.742
 INTER:                  -9.858
 INTRA:                  -0.884
 UNBOUND:                -0.884
  Name = CHEMBL1893905
  11 active torsions:
  status: ('A' for Active; 'I' for Inactive)
    1  A    between atoms: C_1  and  O_2
    2  A    between atoms: O_2  and  C_3
    3  A    between atoms: C_6  and  C_7
    4  A    between atoms: C_7  and  N_8
    5  A    between atoms: C_9  and  C_11
    6  A    between atoms: C_11  and  C_12
    7  A    between atoms: C_12  and  C_13
    8  A    between atoms: C_13  and  C_15
    9  A    between atoms: C_18  and  C_19
   10  A    between atoms: C_23  and  O_24
   11  A    between atoms: O_24  and  C_25
                            x       y       z     vdW  Elec       q    Type
                         _______ _______ _______ _____ _____    ______ ____

>  <TORSDO>
F 8

>  <SCORE>
-6.716

>  <RMSD_LB>
2.372

>  <RMSD_UB>
4.860

$$$$
