CHEMBL1762213
 OpenBabel10172500493D

 18 18  0  0  0  0  0  0  0  0999 V2000
  138.2500  138.3130  154.9350 C   0  0  0  0  0  0  0  0  0  0  0  0
  137.3550  137.3730  154.4150 C   0  0  0  0  0  3  0  0  0  0  0  0
  137.3730  137.0350  153.0520 C   0  0  0  0  0  0  0  0  0  0  0  0
  138.3160  137.6370  152.2100 C   0  0  0  0  0  3  0  0  0  0  0  0
  139.2170  138.5740  152.7170 C   0  0  0  0  0  3  0  0  0  0  0  0
  139.1770  138.9090  154.0700 C   0  0  0  0  0  0  0  0  0  0  0  0
  138.5470  137.6870  157.2140 C   0  0  0  0  0  1  0  0  0  0  0  0
  138.2980  138.7000  156.2490 O   0  0  0  0  0  0  0  0  0  0  0  0
  140.0600  139.8320  154.5660 O   0  0  0  0  0  0  0  0  0  0  0  0
  140.0140  140.7240  154.2830 H   0  0  0  0  0  0  0  0  0  0  0  0
  136.4230  135.9950  152.5130 C   0  0  0  0  0  2  0  0  0  0  0  0
  135.8100  135.1080  153.5970 C   0  0  0  0  0  2  0  0  0  0  0  0
  134.7470  134.2060  153.0030 C   0  0  0  0  0  0  0  0  0  0  0  0
  133.9610  133.5730  153.7070 O   0  0  0  0  0  0  0  0  0  0  0  0
  134.6800  134.1090  151.5010 C   0  0  0  0  0  2  0  0  0  0  0  0
  133.3470  134.5190  150.9370 C   0  0  0  0  0  0  0  0  0  0  0  0
  133.0040  135.9850  150.8640 C   0  0  0  0  0  1  0  0  0  0  0  0
  132.5640  133.6690  150.5060 O   0  0  0  0  0  0  0  0  0  0  0  0
  1  8  1  0  0  0  0
  2  1  1  0  0  0  0
  3  2  2  0  0  0  0
  4  5  2  0  0  0  0
  4  3  1  0  0  0  0
  5  6  1  0  0  0  0
  6  9  1  0  0  0  0
  6  1  2  0  0  0  0
  8  7  1  0  0  0  0
 10  9  1  0  0  0  0
 11  3  1  0  0  0  0
 11 12  1  0  0  0  0
 13 12  1  0  0  0  0
 13 14  2  0  0  0  0
 15 13  1  0  0  0  0
 16 15  1  0  0  0  0
 17 16  1  0  0  0  0
 18 16  2  0  0  0  0
M  END
>  <MODEL>
1

>  <REMARK>
 VINA RESULT:    -5.806      0.000      0.000
 INTER + INTRA:          -8.617
 INTER:                  -8.035
 INTRA:                  -0.582
 UNBOUND:                -0.605
  Name = CHEMBL1762213
  9 active torsions:
  status: ('A' for Active; 'I' for Inactive)
    1  A    between atoms: C_1  and  O_2
    2  A    between atoms: O_2  and  C_3
    3  A    between atoms: C_5  and  C_6
    4  A    between atoms: C_6  and  C_7
    5  A    between atoms: C_7  and  C_8
    6  A    between atoms: C_8  and  C_10
    7  A    between atoms: C_10  and  C_11
    8  A    between atoms: C_11  and  C_12
    9  A    between atoms: C_16  and  O_17
                            x       y       z     vdW  Elec       q    Type
                         _______ _______ _______ _____ _____    ______ ____

>  <TORSDO>
F 7

>  <SCORE>
-5.806

>  <RMSD_LB>
0.000

>  <RMSD_UB>
0.000

$$$$
CHEMBL1762213
 OpenBabel10172500493D

 18 18  0  0  0  0  0  0  0  0999 V2000
  147.8160  141.9690  151.7840 C   0  0  0  0  0  0  0  0  0  0  0  0
  146.6630  141.3950  152.3270 C   0  0  0  0  0  3  0  0  0  0  0  0
  146.6690  140.8420  153.6180 C   0  0  0  0  0  0  0  0  0  0  0  0
  147.8460  140.8870  154.3750 C   0  0  0  0  0  3  0  0  0  0  0  0
  149.0030  141.4600  153.8470 C   0  0  0  0  0  3  0  0  0  0  0  0
  148.9840  141.9920  152.5570 C   0  0  0  0  0  0  0  0  0  0  0  0
  146.6760  142.7090  149.8270 C   0  0  0  0  0  1  0  0  0  0  0  0
  147.8950  142.5270  150.5340 O   0  0  0  0  0  0  0  0  0  0  0  0
  150.1210  142.5520  152.0390 O   0  0  0  0  0  0  0  0  0  0  0  0
  150.1360  143.4620  151.8150 H   0  0  0  0  0  0  0  0  0  0  0  0
  145.4090  140.2560  154.2010 C   0  0  0  0  0  2  0  0  0  0  0  0
  145.6480  138.9910  155.0280 C   0  0  0  0  0  2  0  0  0  0  0  0
  145.4960  137.7580  154.1600 C   0  0  0  0  0  0  0  0  0  0  0  0
  144.4720  137.5370  153.5160 O   0  0  0  0  0  0  0  0  0  0  0  0
  146.6570  136.7990  154.1090 C   0  0  0  0  0  2  0  0  0  0  0  0
  147.8300  137.3250  153.3270 C   0  0  0  0  0  0  0  0  0  0  0  0
  147.6330  137.7040  151.8810 C   0  0  0  0  0  1  0  0  0  0  0  0
  148.9240  137.4800  153.8730 O   0  0  0  0  0  0  0  0  0  0  0  0
  1  2  2  0  0  0  0
  1  6  1  0  0  0  0
  2  3  1  0  0  0  0
  3 11  1  0  0  0  0
  3  4  2  0  0  0  0
  5  4  1  0  0  0  0
  6  5  2  0  0  0  0
  7  8  1  0  0  0  0
  8  1  1  0  0  0  0
  9  6  1  0  0  0  0
 10  9  1  0  0  0  0
 11 12  1  0  0  0  0
 13 12  1  0  0  0  0
 14 13  2  0  0  0  0
 15 13  1  0  0  0  0
 16 18  2  0  0  0  0
 16 15  1  0  0  0  0
 17 16  1  0  0  0  0
M  END
>  <MODEL>
2

>  <REMARK>
 VINA RESULT:    -5.716      9.525     11.898
 INTER + INTRA:          -8.492
 INTER:                  -7.398
 INTRA:                  -1.094
 UNBOUND:                -0.605
  Name = CHEMBL1762213
  9 active torsions:
  status: ('A' for Active; 'I' for Inactive)
    1  A    between atoms: C_1  and  O_2
    2  A    between atoms: O_2  and  C_3
    3  A    between atoms: C_5  and  C_6
    4  A    between atoms: C_6  and  C_7
    5  A    between atoms: C_7  and  C_8
    6  A    between atoms: C_8  and  C_10
    7  A    between atoms: C_10  and  C_11
    8  A    between atoms: C_11  and  C_12
    9  A    between atoms: C_16  and  O_17
                            x       y       z     vdW  Elec       q    Type
                         _______ _______ _______ _____ _____    ______ ____

>  <TORSDO>
F 7

>  <SCORE>
-5.716

>  <RMSD_LB>
9.525

>  <RMSD_UB>
11.898

$$$$
CHEMBL1762213
 OpenBabel10172500493D

 18 18  0  0  0  0  0  0  0  0999 V2000
  138.1690  138.1280  154.6030 C   0  0  0  0  0  0  0  0  0  0  0  0
  137.3590  137.2240  153.9100 C   0  0  0  0  0  3  0  0  0  0  0  0
  137.4960  137.0460  152.5240 C   0  0  0  0  0  0  0  0  0  0  0  0
  138.4740  137.7730  151.8350 C   0  0  0  0  0  3  0  0  0  0  0  0
  139.2920  138.6750  152.5140 C   0  0  0  0  0  3  0  0  0  0  0  0
  139.1320  138.8520  153.8880 C   0  0  0  0  0  0  0  0  0  0  0  0
  138.6250  137.3640  156.8120 C   0  0  0  0  0  1  0  0  0  0  0  0
  138.0980  138.3640  155.9520 O   0  0  0  0  0  0  0  0  0  0  0  0
  139.9340  139.7410  154.5550 O   0  0  0  0  0  0  0  0  0  0  0  0
  139.8930  140.6540  154.3490 H   0  0  0  0  0  0  0  0  0  0  0  0
  136.6370  136.0420  151.7960 C   0  0  0  0  0  2  0  0  0  0  0  0
  135.1600  136.1050  152.1880 C   0  0  0  0  0  2  0  0  0  0  0  0
  134.5970  134.7070  152.3480 C   0  0  0  0  0  0  0  0  0  0  0  0
  133.9950  134.1390  151.4380 O   0  0  0  0  0  0  0  0  0  0  0  0
  134.8020  134.0240  153.6750 C   0  0  0  0  0  2  0  0  0  0  0  0
  134.3280  134.8430  154.8450 C   0  0  0  0  0  0  0  0  0  0  0  0
  135.3110  135.2090  155.9270 C   0  0  0  0  0  1  0  0  0  0  0  0
  133.1620  135.2400  154.8970 O   0  0  0  0  0  0  0  0  0  0  0  0
  1  8  1  0  0  0  0
  2  1  1  0  0  0  0
  3  2  2  0  0  0  0
  4  5  2  0  0  0  0
  4  3  1  0  0  0  0
  5  6  1  0  0  0  0
  6  9  1  0  0  0  0
  6  1  2  0  0  0  0
  8  7  1  0  0  0  0
 10  9  1  0  0  0  0
 11 12  1  0  0  0  0
 11  3  1  0  0  0  0
 12 13  1  0  0  0  0
 13 15  1  0  0  0  0
 14 13  2  0  0  0  0
 15 16  1  0  0  0  0
 16 18  2  0  0  0  0
 16 17  1  0  0  0  0
M  END
>  <MODEL>
3

>  <REMARK>
 VINA RESULT:    -5.606      1.183      2.255
 INTER + INTRA:          -8.341
 INTER:                  -7.622
 INTRA:                  -0.719
 UNBOUND:                -0.605
  Name = CHEMBL1762213
  9 active torsions:
  status: ('A' for Active; 'I' for Inactive)
    1  A    between atoms: C_1  and  O_2
    2  A    between atoms: O_2  and  C_3
    3  A    between atoms: C_5  and  C_6
    4  A    between atoms: C_6  and  C_7
    5  A    between atoms: C_7  and  C_8
    6  A    between atoms: C_8  and  C_10
    7  A    between atoms: C_10  and  C_11
    8  A    between atoms: C_11  and  C_12
    9  A    between atoms: C_16  and  O_17
                            x       y       z     vdW  Elec       q    Type
                         _______ _______ _______ _____ _____    ______ ____

>  <TORSDO>
F 7

>  <SCORE>
-5.606

>  <RMSD_LB>
1.183

>  <RMSD_UB>
2.255

$$$$
CHEMBL1762213
 OpenBabel10172500493D

 18 18  0  0  0  0  0  0  0  0999 V2000
  139.1900  138.5670  152.7530 C   0  0  0  0  0  0  0  0  0  0  0  0
  138.2640  137.6130  152.3200 C   0  0  0  0  0  3  0  0  0  0  0  0
  137.3770  137.0040  153.2220 C   0  0  0  0  0  0  0  0  0  0  0  0
  137.4130  137.3760  154.5720 C   0  0  0  0  0  3  0  0  0  0  0  0
  138.3290  138.3290  155.0170 C   0  0  0  0  0  3  0  0  0  0  0  0
  139.2130  138.9130  154.1100 C   0  0  0  0  0  0  0  0  0  0  0  0
  139.5640  139.9450  150.8460 C   0  0  0  0  0  1  0  0  0  0  0  0
  140.0900  139.2050  151.9400 O   0  0  0  0  0  0  0  0  0  0  0  0
  140.1140  139.8470  154.5490 O   0  0  0  0  0  0  0  0  0  0  0  0
  139.9790  140.7540  154.3600 H   0  0  0  0  0  0  0  0  0  0  0  0
  136.3620  136.0020  152.7340 C   0  0  0  0  0  2  0  0  0  0  0  0
  135.7370  135.1700  153.8540 C   0  0  0  0  0  2  0  0  0  0  0  0
  134.8210  134.1090  153.2770 C   0  0  0  0  0  0  0  0  0  0  0  0
  134.1280  133.3870  153.9920 O   0  0  0  0  0  0  0  0  0  0  0  0
  134.7820  133.9680  151.7780 C   0  0  0  0  0  2  0  0  0  0  0  0
  133.4870  134.4320  151.1690 C   0  0  0  0  0  0  0  0  0  0  0  0
  132.8570  133.6080  150.0750 C   0  0  0  0  0  1  0  0  0  0  0  0
  132.9300  135.4500  151.5870 O   0  0  0  0  0  0  0  0  0  0  0  0
  1  6  1  0  0  0  0
  2  1  2  0  0  0  0
  2  3  1  0  0  0  0
  3  4  2  0  0  0  0
  4  5  1  0  0  0  0
  6  9  1  0  0  0  0
  6  5  2  0  0  0  0
  7  8  1  0  0  0  0
  8  1  1  0  0  0  0
 10  9  1  0  0  0  0
 11  3  1  0  0  0  0
 11 12  1  0  0  0  0
 13 12  1  0  0  0  0
 13 14  2  0  0  0  0
 15 13  1  0  0  0  0
 16 18  2  0  0  0  0
 16 15  1  0  0  0  0
 17 16  1  0  0  0  0
M  END
>  <MODEL>
4

>  <REMARK>
 VINA RESULT:    -5.594      1.102      2.469
 INTER + INTRA:          -8.324
 INTER:                  -7.822
 INTRA:                  -0.502
 UNBOUND:                -0.605
  Name = CHEMBL1762213
  9 active torsions:
  status: ('A' for Active; 'I' for Inactive)
    1  A    between atoms: C_1  and  O_2
    2  A    between atoms: O_2  and  C_3
    3  A    between atoms: C_5  and  C_6
    4  A    between atoms: C_6  and  C_7
    5  A    between atoms: C_7  and  C_8
    6  A    between atoms: C_8  and  C_10
    7  A    between atoms: C_10  and  C_11
    8  A    between atoms: C_11  and  C_12
    9  A    between atoms: C_16  and  O_17
                            x       y       z     vdW  Elec       q    Type
                         _______ _______ _______ _____ _____    ______ ____

>  <TORSDO>
F 7

>  <SCORE>
-5.594

>  <RMSD_LB>
1.102

>  <RMSD_UB>
2.469

$$$$
CHEMBL1762213
 OpenBabel10172500493D

 18 18  0  0  0  0  0  0  0  0999 V2000
  136.4250  136.1260  154.6340 C   0  0  0  0  0  0  0  0  0  0  0  0
  136.2550  135.6990  153.3130 C   0  0  0  0  0  3  0  0  0  0  0  0
  135.3210  134.7020  152.9890 C   0  0  0  0  0  0  0  0  0  0  0  0
  134.5360  134.1450  154.0050 C   0  0  0  0  0  3  0  0  0  0  0  0
  134.6920  134.5630  155.3260 C   0  0  0  0  0  3  0  0  0  0  0  0
  135.6350  135.5430  155.6340 C   0  0  0  0  0  0  0  0  0  0  0  0
  138.0900  137.7160  154.0230 C   0  0  0  0  0  1  0  0  0  0  0  0
  137.3140  137.0880  155.0350 O   0  0  0  0  0  0  0  0  0  0  0  0
  135.7890  135.9510  156.9330 O   0  0  0  0  0  0  0  0  0  0  0  0
  136.1240  136.8070  157.1190 H   0  0  0  0  0  0  0  0  0  0  0  0
  135.1270  134.2780  151.5550 C   0  0  0  0  0  2  0  0  0  0  0  0
  133.8010  133.5580  151.3050 C   0  0  0  0  0  2  0  0  0  0  0  0
  132.9720  134.3160  150.2880 C   0  0  0  0  0  0  0  0  0  0  0  0
  132.5950  135.4710  150.4860 O   0  0  0  0  0  0  0  0  0  0  0  0
  132.6210  133.6030  149.0090 C   0  0  0  0  0  2  0  0  0  0  0  0
  133.8270  133.1780  148.2150 C   0  0  0  0  0  0  0  0  0  0  0  0
  134.8190  134.2240  147.7750 C   0  0  0  0  0  1  0  0  0  0  0  0
  134.0190  131.9860  147.9620 O   0  0  0  0  0  0  0  0  0  0  0  0
  1  8  1  0  0  0  0
  1  6  1  0  0  0  0
  2  1  2  0  0  0  0
  3  2  1  0  0  0  0
  3  4  2  0  0  0  0
  4  5  1  0  0  0  0
  5  6  2  0  0  0  0
  6  9  1  0  0  0  0
  7  8  1  0  0  0  0
  9 10  1  0  0  0  0
 11  3  1  0  0  0  0
 12 11  1  0  0  0  0
 13 14  2  0  0  0  0
 13 12  1  0  0  0  0
 15 13  1  0  0  0  0
 16 15  1  0  0  0  0
 17 16  1  0  0  0  0
 18 16  2  0  0  0  0
M  END
>  <MODEL>
5

>  <REMARK>
 VINA RESULT:    -5.586      2.131      3.970
 INTER + INTRA:          -8.314
 INTER:                  -7.720
 INTRA:                  -0.594
 UNBOUND:                -0.605
  Name = CHEMBL1762213
  9 active torsions:
  status: ('A' for Active; 'I' for Inactive)
    1  A    between atoms: C_1  and  O_2
    2  A    between atoms: O_2  and  C_3
    3  A    between atoms: C_5  and  C_6
    4  A    between atoms: C_6  and  C_7
    5  A    between atoms: C_7  and  C_8
    6  A    between atoms: C_8  and  C_10
    7  A    between atoms: C_10  and  C_11
    8  A    between atoms: C_11  and  C_12
    9  A    between atoms: C_16  and  O_17
                            x       y       z     vdW  Elec       q    Type
                         _______ _______ _______ _____ _____    ______ ____

>  <TORSDO>
F 7

>  <SCORE>
-5.586

>  <RMSD_LB>
2.131

>  <RMSD_UB>
3.970

$$$$
CHEMBL1762213
 OpenBabel10172500493D

 18 18  0  0  0  0  0  0  0  0999 V2000
  140.0690  138.2470  154.1710 C   0  0  0  0  0  0  0  0  0  0  0  0
  141.2820  137.9410  153.5460 C   0  0  0  0  0  3  0  0  0  0  0  0
  141.3240  137.5630  152.1950 C   0  0  0  0  0  0  0  0  0  0  0  0
  140.1320  137.5130  151.4610 C   0  0  0  0  0  3  0  0  0  0  0  0
  138.9160  137.8190  152.0700 C   0  0  0  0  0  3  0  0  0  0  0  0
  138.8890  138.1780  153.4180 C   0  0  0  0  0  0  0  0  0  0  0  0
  140.2110  137.6320  156.4680 C   0  0  0  0  0  1  0  0  0  0  0  0
  139.9400  138.6210  155.4830 O   0  0  0  0  0  0  0  0  0  0  0  0
  137.6930  138.4760  154.0160 O   0  0  0  0  0  0  0  0  0  0  0  0
  137.1910  139.2100  153.7200 H   0  0  0  0  0  0  0  0  0  0  0  0
  142.6440  137.2680  151.5270 C   0  0  0  0  0  2  0  0  0  0  0  0
  143.8400  137.3460  152.4780 C   0  0  0  0  0  2  0  0  0  0  0  0
  144.7820  138.4530  152.0520 C   0  0  0  0  0  0  0  0  0  0  0  0
  145.8730  138.2170  151.5330 O   0  0  0  0  0  0  0  0  0  0  0  0
  144.3340  139.8730  152.2840 C   0  0  0  0  0  2  0  0  0  0  0  0
  144.3620  140.7160  151.0380 C   0  0  0  0  0  0  0  0  0  0  0  0
  143.6200  140.2400  149.8160 C   0  0  0  0  0  1  0  0  0  0  0  0
  144.9520  141.8000  151.0320 O   0  0  0  0  0  0  0  0  0  0  0  0
  1  8  1  0  0  0  0
  2  1  1  0  0  0  0
  3  2  2  0  0  0  0
  4  5  2  0  0  0  0
  4  3  1  0  0  0  0
  5  6  1  0  0  0  0
  6  9  1  0  0  0  0
  6  1  2  0  0  0  0
  8  7  1  0  0  0  0
 10  9  1  0  0  0  0
 11  3  1  0  0  0  0
 11 12  1  0  0  0  0
 13 15  1  0  0  0  0
 13 12  1  0  0  0  0
 14 13  2  0  0  0  0
 16 15  1  0  0  0  0
 17 16  1  0  0  0  0
 18 16  2  0  0  0  0
M  END
>  <MODEL>
6

>  <REMARK>
 VINA RESULT:    -5.512      4.176      8.029
 INTER + INTRA:          -8.211
 INTER:                  -7.472
 INTRA:                  -0.739
 UNBOUND:                -0.605
  Name = CHEMBL1762213
  9 active torsions:
  status: ('A' for Active; 'I' for Inactive)
    1  A    between atoms: C_1  and  O_2
    2  A    between atoms: O_2  and  C_3
    3  A    between atoms: C_5  and  C_6
    4  A    between atoms: C_6  and  C_7
    5  A    between atoms: C_7  and  C_8
    6  A    between atoms: C_8  and  C_10
    7  A    between atoms: C_10  and  C_11
    8  A    between atoms: C_11  and  C_12
    9  A    between atoms: C_16  and  O_17
                            x       y       z     vdW  Elec       q    Type
                         _______ _______ _______ _____ _____    ______ ____

>  <TORSDO>
F 7

>  <SCORE>
-5.512

>  <RMSD_LB>
4.176

>  <RMSD_UB>
8.029

$$$$
CHEMBL1762213
 OpenBabel10172500493D

 18 18  0  0  0  0  0  0  0  0999 V2000
  137.0660  137.6240  155.3040 C   0  0  0  0  0  0  0  0  0  0  0  0
  136.4160  136.7380  154.4400 C   0  0  0  0  0  3  0  0  0  0  0  0
  135.7740  135.5890  154.9300 C   0  0  0  0  0  0  0  0  0  0  0  0
  135.7700  135.3440  156.3090 C   0  0  0  0  0  3  0  0  0  0  0  0
  136.4110  136.2210  157.1830 C   0  0  0  0  0  3  0  0  0  0  0  0
  137.0580  137.3500  156.6790 C   0  0  0  0  0  0  0  0  0  0  0  0
  138.8890  138.5980  154.1210 C   0  0  0  0  0  1  0  0  0  0  0  0
  137.7180  138.7630  154.9090 O   0  0  0  0  0  0  0  0  0  0  0  0
  137.6890  138.2090  157.5380 O   0  0  0  0  0  0  0  0  0  0  0  0
  138.1290  137.8760  158.2960 H   0  0  0  0  0  0  0  0  0  0  0  0
  135.0490  134.6620  153.9880 C   0  0  0  0  0  2  0  0  0  0  0  0
  135.8060  134.4030  152.6840 C   0  0  0  0  0  2  0  0  0  0  0  0
  134.9250  134.7170  151.4910 C   0  0  0  0  0  0  0  0  0  0  0  0
  134.6750  135.8730  151.1520 O   0  0  0  0  0  0  0  0  0  0  0  0
  134.3590  133.5530  150.7210 C   0  0  0  0  0  2  0  0  0  0  0  0
  132.9970  133.8270  150.1430 C   0  0  0  0  0  0  0  0  0  0  0  0
  132.7630  133.5790  148.6740 C   0  0  0  0  0  1  0  0  0  0  0  0
  132.0770  134.2130  150.8680 O   0  0  0  0  0  0  0  0  0  0  0  0
  1  6  1  0  0  0  0
  2  3  1  0  0  0  0
  2  1  2  0  0  0  0
  3  4  2  0  0  0  0
  4  5  1  0  0  0  0
  6  5  2  0  0  0  0
  6  9  1  0  0  0  0
  7  8  1  0  0  0  0
  8  1  1  0  0  0  0
  9 10  1  0  0  0  0
 11  3  1  0  0  0  0
 12 11  1  0  0  0  0
 13 12  1  0  0  0  0
 14 13  2  0  0  0  0
 15 13  1  0  0  0  0
 16 15  1  0  0  0  0
 16 18  2  0  0  0  0
 17 16  1  0  0  0  0
M  END
>  <MODEL>
7

>  <REMARK>
 VINA RESULT:    -5.435      1.686      2.995
 INTER + INTRA:          -8.105
 INTER:                  -7.751
 INTRA:                  -0.354
 UNBOUND:                -0.605
  Name = CHEMBL1762213
  9 active torsions:
  status: ('A' for Active; 'I' for Inactive)
    1  A    between atoms: C_1  and  O_2
    2  A    between atoms: O_2  and  C_3
    3  A    between atoms: C_5  and  C_6
    4  A    between atoms: C_6  and  C_7
    5  A    between atoms: C_7  and  C_8
    6  A    between atoms: C_8  and  C_10
    7  A    between atoms: C_10  and  C_11
    8  A    between atoms: C_11  and  C_12
    9  A    between atoms: C_16  and  O_17
                            x       y       z     vdW  Elec       q    Type
                         _______ _______ _______ _____ _____    ______ ____

>  <TORSDO>
F 7

>  <SCORE>
-5.435

>  <RMSD_LB>
1.686

>  <RMSD_UB>
2.995

$$$$
CHEMBL1762213
 OpenBabel10172500493D

 18 18  0  0  0  0  0  0  0  0999 V2000
  139.7120  138.2340  154.5770 C   0  0  0  0  0  0  0  0  0  0  0  0
  141.0310  138.1620  154.1180 C   0  0  0  0  0  3  0  0  0  0  0  0
  141.3150  137.8890  152.7700 C   0  0  0  0  0  0  0  0  0  0  0  0
  140.2560  137.7070  151.8720 C   0  0  0  0  0  3  0  0  0  0  0  0
  138.9350  137.7800  152.3150 C   0  0  0  0  0  3  0  0  0  0  0  0
  138.6710  138.0360  153.6600 C   0  0  0  0  0  0  0  0  0  0  0  0
  139.4880  137.4300  156.8070 C   0  0  0  0  0  1  0  0  0  0  0  0
  139.3500  138.4920  155.8730 O   0  0  0  0  0  0  0  0  0  0  0  0
  137.3740  138.1040  154.0950 O   0  0  0  0  0  0  0  0  0  0  0  0
  136.6840  137.7460  153.5710 H   0  0  0  0  0  0  0  0  0  0  0  0
  142.7420  137.8490  152.2850 C   0  0  0  0  0  2  0  0  0  0  0  0
  143.3750  139.2330  152.1340 C   0  0  0  0  0  2  0  0  0  0  0  0
  144.7400  139.2640  152.7920 C   0  0  0  0  0  0  0  0  0  0  0  0
  145.7550  139.5820  152.1720 O   0  0  0  0  0  0  0  0  0  0  0  0
  144.8170  138.8900  154.2490 C   0  0  0  0  0  2  0  0  0  0  0  0
  145.9360  137.9330  154.5590 C   0  0  0  0  0  0  0  0  0  0  0  0
  145.9600  136.5890  153.8760 C   0  0  0  0  0  1  0  0  0  0  0  0
  146.8400  138.2600  155.3310 O   0  0  0  0  0  0  0  0  0  0  0  0
  1  8  1  0  0  0  0
  2  1  1  0  0  0  0
  3  2  2  0  0  0  0
  4  5  2  0  0  0  0
  4  3  1  0  0  0  0
  5  6  1  0  0  0  0
  6  9  1  0  0  0  0
  6  1  2  0  0  0  0
  8  7  1  0  0  0  0
 10  9  1  0  0  0  0
 11  3  1  0  0  0  0
 12 11  1  0  0  0  0
 12 13  1  0  0  0  0
 13 15  1  0  0  0  0
 14 13  2  0  0  0  0
 15 16  1  0  0  0  0
 16 18  2  0  0  0  0
 17 16  1  0  0  0  0
M  END
>  <MODEL>
8

>  <REMARK>
 VINA RESULT:    -5.413      4.209      8.459
 INTER + INTRA:          -8.075
 INTER:                  -7.400
 INTRA:                  -0.675
 UNBOUND:                -0.605
  Name = CHEMBL1762213
  9 active torsions:
  status: ('A' for Active; 'I' for Inactive)
    1  A    between atoms: C_1  and  O_2
    2  A    between atoms: O_2  and  C_3
    3  A    between atoms: C_5  and  C_6
    4  A    between atoms: C_6  and  C_7
    5  A    between atoms: C_7  and  C_8
    6  A    between atoms: C_8  and  C_10
    7  A    between atoms: C_10  and  C_11
    8  A    between atoms: C_11  and  C_12
    9  A    between atoms: C_16  and  O_17
                            x       y       z     vdW  Elec       q    Type
                         _______ _______ _______ _____ _____    ______ ____

>  <TORSDO>
F 7

>  <SCORE>
-5.413

>  <RMSD_LB>
4.209

>  <RMSD_UB>
8.459

$$$$
CHEMBL1762213
 OpenBabel10172500493D

 18 18  0  0  0  0  0  0  0  0999 V2000
  139.7660  138.4420  152.5550 C   0  0  0  0  0  0  0  0  0  0  0  0
  141.0460  137.9780  152.2360 C   0  0  0  0  0  3  0  0  0  0  0  0
  142.0570  137.9180  153.2080 C   0  0  0  0  0  0  0  0  0  0  0  0
  141.7670  138.3110  154.5200 C   0  0  0  0  0  3  0  0  0  0  0  0
  140.4940  138.7720  154.8540 C   0  0  0  0  0  3  0  0  0  0  0  0
  139.5050  138.8400  153.8730 C   0  0  0  0  0  0  0  0  0  0  0  0
  138.1400  137.3170  151.2260 C   0  0  0  0  0  1  0  0  0  0  0  0
  138.7250  138.5350  151.6670 O   0  0  0  0  0  0  0  0  0  0  0  0
  138.2550  139.2960  154.2010 O   0  0  0  0  0  0  0  0  0  0  0  0
  137.5570  138.6870  154.3430 H   0  0  0  0  0  0  0  0  0  0  0  0
  143.4220  137.3840  152.8550 C   0  0  0  0  0  2  0  0  0  0  0  0
  144.5600  138.3510  153.1840 C   0  0  0  0  0  2  0  0  0  0  0  0
  145.0010  139.0900  151.9360 C   0  0  0  0  0  0  0  0  0  0  0  0
  145.7620  138.5820  151.1130 O   0  0  0  0  0  0  0  0  0  0  0  0
  144.4710  140.4850  151.7320 C   0  0  0  0  0  2  0  0  0  0  0  0
  145.5290  141.5480  151.8540 C   0  0  0  0  0  0  0  0  0  0  0  0
  145.7110  142.5310  150.7250 C   0  0  0  0  0  1  0  0  0  0  0  0
  146.2100  141.6360  152.8780 O   0  0  0  0  0  0  0  0  0  0  0  0
  1  6  1  0  0  0  0
  2  1  2  0  0  0  0
  2  3  1  0  0  0  0
  3  4  2  0  0  0  0
  4  5  1  0  0  0  0
  6  9  1  0  0  0  0
  6  5  2  0  0  0  0
  7  8  1  0  0  0  0
  8  1  1  0  0  0  0
  9 10  1  0  0  0  0
 11 12  1  0  0  0  0
 11  3  1  0  0  0  0
 13 12  1  0  0  0  0
 14 13  2  0  0  0  0
 15 16  1  0  0  0  0
 15 13  1  0  0  0  0
 16 18  2  0  0  0  0
 17 16  1  0  0  0  0
M  END
>  <MODEL>
9

>  <REMARK>
 VINA RESULT:    -5.128      4.570      8.974
 INTER + INTRA:          -7.681
 INTER:                  -7.076
 INTRA:                  -0.605
 UNBOUND:                -0.605
  Name = CHEMBL1762213
  9 active torsions:
  status: ('A' for Active; 'I' for Inactive)
    1  A    between atoms: C_1  and  O_2
    2  A    between atoms: O_2  and  C_3
    3  A    between atoms: C_5  and  C_6
    4  A    between atoms: C_6  and  C_7
    5  A    between atoms: C_7  and  C_8
    6  A    between atoms: C_8  and  C_10
    7  A    between atoms: C_10  and  C_11
    8  A    between atoms: C_11  and  C_12
    9  A    between atoms: C_16  and  O_17
                            x       y       z     vdW  Elec       q    Type
                         _______ _______ _______ _____ _____    ______ ____

>  <TORSDO>
F 7

>  <SCORE>
-5.128

>  <RMSD_LB>
4.570

>  <RMSD_UB>
8.974

$$$$
