CHEMBL80404
 OpenBabel10162523503D

 25 25  0  0  1  0  0  0  0  0999 V2000
  144.8350  138.2450  150.1160 N   0  0  0  0  0  0  0  0  0  0  0  0
  144.7130  137.4850  151.1250 C   0  0  1  0  0  3  0  0  0  0  0  0
  143.4740  137.1760  151.6540 N   0  0  0  0  0  0  0  0  0  0  0  0
  144.0250  138.6190  149.6980 H   0  0  0  0  0  0  0  0  0  0  0  0
  143.4280  136.9240  152.6040 H   0  0  0  0  0  0  0  0  0  0  0  0
  146.0310  136.6800  151.9780 S   0  0  0  0  0  0  0  0  0  0  0  0
  145.5580  136.1300  153.1280 H   0  0  0  0  0  0  0  0  0  0  0  0
  146.1430  138.5800  149.5550 C   0  0  0  0  0  2  0  0  0  0  0  0
  146.5920  139.9480  150.0460 C   0  0  0  0  0  2  0  0  0  0  0  0
  145.4390  140.9420  149.9120 C   0  0  0  0  0  2  0  0  0  0  0  0
  145.7620  142.2790  150.5750 C   0  0  0  0  0  2  0  0  0  0  0  0
  146.8820  142.1230  151.6050 C   0  0  0  0  0  2  0  0  0  0  0  0
  147.4220  141.9190  154.0550 C   0  0  0  0  0  1  0  0  0  0  0  0
  146.3430  142.2280  153.0300 C   0  0  0  0  0  2  0  0  0  0  0  0
  142.2390  137.1990  150.8990 C   0  0  0  0  0  2  0  0  0  0  0  0
  141.0460  137.5270  151.7830 C   0  0  0  0  0  0  0  0  0  0  0  0
  139.7350  137.4660  151.2950 C   0  0  0  0  0  3  0  0  0  0  0  0
  138.6550  137.8270  152.1070 C   0  0  0  0  0  3  0  0  0  0  0  0
  138.8700  138.2740  153.4140 C   0  0  0  0  0  0  0  0  0  0  0  0
  140.1680  138.3810  153.9200 C   0  0  0  0  0  0  0  0  0  0  0  0
  141.2410  138.0020  153.0950 C   0  0  0  0  0  3  0  0  0  0  0  0
  137.7770  138.6070  154.1670 O   0  0  0  0  0  0  0  0  0  0  0  0
  137.8710  138.7680  155.0860 H   0  0  0  0  0  0  0  0  0  0  0  0
  140.5630  138.8250  155.1550 O   0  0  0  0  0  0  0  0  0  0  0  0
  140.6450  137.8750  156.2090 C   0  0  0  0  0  1  0  0  0  0  0  0
  1  2  1  0  0  0  0
  2  3  1  0  0  0  0
  2  6  1  6  0  0  0
  3  5  1  0  0  0  0
  4  1  1  0  0  0  0
  6  7  1  0  0  0  0
  8  9  1  0  0  0  0
  8  1  1  0  0  0  0
 10  9  1  0  0  0  0
 10 11  1  0  0  0  0
 11 12  1  0  0  0  0
 12 14  1  0  0  0  0
 14 13  1  0  0  0  0
 15  3  1  0  0  0  0
 15 16  1  0  0  0  0
 16 21  1  0  0  0  0
 17 16  2  0  0  0  0
 17 18  1  0  0  0  0
 18 19  2  0  0  0  0
 19 20  1  0  0  0  0
 19 22  1  0  0  0  0
 20 24  1  0  0  0  0
 21 20  2  0  0  0  0
 22 23  1  0  0  0  0
 24 25  1  0  0  0  0
M  END
>  <MODEL>
1

>  <REMARK>
 VINA RESULT:    -6.186      0.000      0.000
 INTER + INTRA:         -10.255
 INTER:                  -9.560
 INTRA:                  -0.695
 UNBOUND:                -0.452
  Name = CHEMBL80404
  13 active torsions:
  status: ('A' for Active; 'I' for Inactive)
    1  A    between atoms: C_1  and  C_2
    2  A    between atoms: C_2  and  C_3
    3  A    between atoms: C_3  and  C_4
    4  A    between atoms: C_4  and  C_5
    5  A    between atoms: C_5  and  C_6
    6  A    between atoms: C_6  and  C_7
    7  A    between atoms: C_7  and  N_8
    8  A    between atoms: C_9  and  S_10
    9  A    between atoms: N_11  and  C_12
   10  A    between atoms: C_12  and  C_13
   11  A    between atoms: C_16  and  O_17
   12  A    between atoms: C_18  and  O_19
   13  A    between atoms: O_19  and  C_20
                            x       y       z     vdW  Elec       q    Type
                         _______ _______ _______ _____ _____    ______ ____

>  <TORSDO>
F 11

>  <SCORE>
-6.186

>  <RMSD_LB>
0.000

>  <RMSD_UB>
0.000

$$$$
CHEMBL80404
 OpenBabel10162523503D

 25 25  0  0  1  0  0  0  0  0999 V2000
  144.4000  140.5840  149.3670 N   0  0  0  0  0  0  0  0  0  0  0  0
  145.5700  140.6070  148.8710 C   0  0  1  0  0  3  0  0  0  0  0  0
  146.3730  141.7270  148.9650 N   0  0  0  0  0  0  0  0  0  0  0  0
  144.0620  141.3830  149.8330 H   0  0  0  0  0  0  0  0  0  0  0  0
  147.0710  141.8520  148.2820 H   0  0  0  0  0  0  0  0  0  0  0  0
  146.3700  139.2670  148.0490 S   0  0  0  0  0  0  0  0  0  0  0  0
  146.5070  139.5630  146.7290 H   0  0  0  0  0  0  0  0  0  0  0  0
  143.5430  139.4040  149.2660 C   0  0  0  0  0  2  0  0  0  0  0  0
  142.6630  139.2860  150.5010 C   0  0  0  0  0  2  0  0  0  0  0  0
  142.4320  137.8110  150.8250 C   0  0  0  0  0  2  0  0  0  0  0  0
  141.2520  137.6140  151.7730 C   0  0  0  0  0  2  0  0  0  0  0  0
  141.6830  137.8050  153.2290 C   0  0  0  0  0  2  0  0  0  0  0  0
  140.8930  138.2270  155.5810 C   0  0  0  0  0  1  0  0  0  0  0  0
  140.4900  138.1530  154.1180 C   0  0  0  0  0  2  0  0  0  0  0  0
  146.2550  142.7290  150.0040 C   0  0  0  0  0  2  0  0  0  0  0  0
  146.9280  142.2850  151.2930 C   0  0  0  0  0  0  0  0  0  0  0  0
  148.3220  142.2460  151.4150 C   0  0  0  0  0  3  0  0  0  0  0  0
  148.9220  141.7800  152.5900 C   0  0  0  0  0  3  0  0  0  0  0  0
  148.1370  141.3270  153.6540 C   0  0  0  0  0  0  0  0  0  0  0  0
  146.7440  141.3200  153.5510 C   0  0  0  0  0  0  0  0  0  0  0  0
  146.1570  141.8030  152.3690 C   0  0  0  0  0  3  0  0  0  0  0  0
  148.7760  140.8890  154.7830 O   0  0  0  0  0  0  0  0  0  0  0  0
  149.3410  141.4680  155.2550 H   0  0  0  0  0  0  0  0  0  0  0  0
  145.8280  140.8860  154.4740 O   0  0  0  0  0  0  0  0  0  0  0  0
  145.4560  139.5140  154.4480 C   0  0  0  0  0  1  0  0  0  0  0  0
  1  4  1  0  0  0  0
  2  6  1  1  0  0  0
  2  3  1  0  0  0  0
  2  1  1  0  0  0  0
  3 15  1  0  0  0  0
  5  3  1  0  0  0  0
  7  6  1  0  0  0  0
  8  1  1  0  0  0  0
  8  9  1  0  0  0  0
  9 10  1  0  0  0  0
 10 11  1  0  0  0  0
 11 12  1  0  0  0  0
 12 14  1  0  0  0  0
 14 13  1  0  0  0  0
 15 16  1  0  0  0  0
 16 17  2  0  0  0  0
 16 21  1  0  0  0  0
 17 18  1  0  0  0  0
 18 19  2  0  0  0  0
 19 22  1  0  0  0  0
 20 19  1  0  0  0  0
 20 24  1  0  0  0  0
 21 20  2  0  0  0  0
 22 23  1  0  0  0  0
 25 24  1  0  0  0  0
M  END
>  <MODEL>
2

>  <REMARK>
 VINA RESULT:    -6.156      2.946      6.981
 INTER + INTRA:         -10.207
 INTER:                  -9.531
 INTRA:                  -0.676
 UNBOUND:                -0.452
  Name = CHEMBL80404
  13 active torsions:
  status: ('A' for Active; 'I' for Inactive)
    1  A    between atoms: C_1  and  C_2
    2  A    between atoms: C_2  and  C_3
    3  A    between atoms: C_3  and  C_4
    4  A    between atoms: C_4  and  C_5
    5  A    between atoms: C_5  and  C_6
    6  A    between atoms: C_6  and  C_7
    7  A    between atoms: C_7  and  N_8
    8  A    between atoms: C_9  and  S_10
    9  A    between atoms: N_11  and  C_12
   10  A    between atoms: C_12  and  C_13
   11  A    between atoms: C_16  and  O_17
   12  A    between atoms: C_18  and  O_19
   13  A    between atoms: O_19  and  C_20
                            x       y       z     vdW  Elec       q    Type
                         _______ _______ _______ _____ _____    ______ ____

>  <TORSDO>
F 11

>  <SCORE>
-6.156

>  <RMSD_LB>
2.946

>  <RMSD_UB>
6.981

$$$$
CHEMBL80404
 OpenBabel10162523503D

 25 25  0  0  1  0  0  0  0  0999 V2000
  146.4890  139.7710  154.5540 N   0  0  0  0  0  0  0  0  0  0  0  0
  146.0820  138.5680  154.5620 C   0  0  1  0  0  3  0  0  0  0  0  0
  144.7350  138.2600  154.5680 N   0  0  0  0  0  0  0  0  0  0  0  0
  145.8270  140.5000  154.5460 H   0  0  0  0  0  0  0  0  0  0  0  0
  144.4620  137.3930  154.9460 H   0  0  0  0  0  0  0  0  0  0  0  0
  147.1040  137.1300  154.5240 S   0  0  0  0  0  0  0  0  0  0  0  0
  147.5970  136.8920  155.7680 H   0  0  0  0  0  0  0  0  0  0  0  0
  147.9130  140.1030  154.5530 C   0  0  0  0  0  2  0  0  0  0  0  0
  148.3600  140.4990  153.1540 C   0  0  0  0  0  2  0  0  0  0  0  0
  147.9730  141.9530  152.8860 C   0  0  0  0  0  2  0  0  0  0  0  0
  147.1480  142.0980  151.6100 C   0  0  0  0  0  2  0  0  0  0  0  0
  145.6610  142.2470  151.9360 C   0  0  0  0  0  2  0  0  0  0  0  0
  145.6500  140.0590  150.6920 C   0  0  0  0  0  1  0  0  0  0  0  0
  144.8180  141.2480  151.1460 C   0  0  0  0  0  2  0  0  0  0  0  0
  143.6990  139.1300  154.0530 C   0  0  0  0  0  2  0  0  0  0  0  0
  142.8900  138.4550  152.9570 C   0  0  0  0  0  0  0  0  0  0  0  0
  143.4570  137.4880  152.1190 C   0  0  0  0  0  3  0  0  0  0  0  0
  142.7110  136.9210  151.0800 C   0  0  0  0  0  3  0  0  0  0  0  0
  141.3930  137.3260  150.8500 C   0  0  0  0  0  0  0  0  0  0  0  0
  140.8090  138.3140  151.6460 C   0  0  0  0  0  0  0  0  0  0  0  0
  141.5680  138.8650  152.6940 C   0  0  0  0  0  3  0  0  0  0  0  0
  140.7080  136.7330  149.8240 O   0  0  0  0  0  0  0  0  0  0  0  0
  141.1460  136.1310  149.2550 H   0  0  0  0  0  0  0  0  0  0  0  0
  139.5520  138.8510  151.5460 O   0  0  0  0  0  0  0  0  0  0  0  0
  139.4010  140.0570  150.8080 C   0  0  0  0  0  1  0  0  0  0  0  0
  1  2  1  0  0  0  0
  2  6  1  6  0  0  0
  2  3  1  0  0  0  0
  3  5  1  0  0  0  0
  4  1  1  0  0  0  0
  6  7  1  0  0  0  0
  8  1  1  0  0  0  0
  9  8  1  0  0  0  0
 10  9  1  0  0  0  0
 11 12  1  0  0  0  0
 11 10  1  0  0  0  0
 13 14  1  0  0  0  0
 14 12  1  0  0  0  0
 15  3  1  0  0  0  0
 16 15  1  0  0  0  0
 17 16  2  0  0  0  0
 18 17  1  0  0  0  0
 19 18  2  0  0  0  0
 19 20  1  0  0  0  0
 20 21  2  0  0  0  0
 21 16  1  0  0  0  0
 22 19  1  0  0  0  0
 23 22  1  0  0  0  0
 24 20  1  0  0  0  0
 25 24  1  0  0  0  0
M  END
>  <MODEL>
3

>  <REMARK>
 VINA RESULT:    -6.074      2.539      3.799
 INTER + INTRA:         -10.078
 INTER:                  -8.708
 INTRA:                  -1.369
 UNBOUND:                -0.452
  Name = CHEMBL80404
  13 active torsions:
  status: ('A' for Active; 'I' for Inactive)
    1  A    between atoms: C_1  and  C_2
    2  A    between atoms: C_2  and  C_3
    3  A    between atoms: C_3  and  C_4
    4  A    between atoms: C_4  and  C_5
    5  A    between atoms: C_5  and  C_6
    6  A    between atoms: C_6  and  C_7
    7  A    between atoms: C_7  and  N_8
    8  A    between atoms: C_9  and  S_10
    9  A    between atoms: N_11  and  C_12
   10  A    between atoms: C_12  and  C_13
   11  A    between atoms: C_16  and  O_17
   12  A    between atoms: C_18  and  O_19
   13  A    between atoms: O_19  and  C_20
                            x       y       z     vdW  Elec       q    Type
                         _______ _______ _______ _____ _____    ______ ____

>  <TORSDO>
F 11

>  <SCORE>
-6.074

>  <RMSD_LB>
2.539

>  <RMSD_UB>
3.799

$$$$
CHEMBL80404
 OpenBabel10162523503D

 25 25  0  0  1  0  0  0  0  0999 V2000
  144.7780  139.1720  150.6910 N   0  0  0  0  0  0  0  0  0  0  0  0
  143.8360  138.6910  149.9870 C   0  0  1  0  0  3  0  0  0  0  0  0
  143.1280  137.5760  150.3900 N   0  0  0  0  0  0  0  0  0  0  0  0
  145.0030  138.7410  151.5470 H   0  0  0  0  0  0  0  0  0  0  0  0
  142.7000  137.0250  149.6960 H   0  0  0  0  0  0  0  0  0  0  0  0
  143.2510  139.3470  148.4570 S   0  0  0  0  0  0  0  0  0  0  0  0
  144.2150  139.2120  147.5080 H   0  0  0  0  0  0  0  0  0  0  0  0
  145.5340  140.3490  150.2670 C   0  0  0  0  0  2  0  0  0  0  0  0
  144.9380  141.6070  150.8790 C   0  0  0  0  0  2  0  0  0  0  0  0
  146.0360  142.4000  151.5870 C   0  0  0  0  0  2  0  0  0  0  0  0
  147.3630  142.3310  150.8360 C   0  0  0  0  0  2  0  0  0  0  0  0
  148.4990  141.9120  151.7710 C   0  0  0  0  0  2  0  0  0  0  0  0
  148.8460  141.9760  154.2630 C   0  0  0  0  0  1  0  0  0  0  0  0
  147.9630  141.4740  153.1320 C   0  0  0  0  0  2  0  0  0  0  0  0
  142.9750  137.1640  151.7700 C   0  0  0  0  0  2  0  0  0  0  0  0
  141.7480  137.7920  152.4120 C   0  0  0  0  0  0  0  0  0  0  0  0
  141.8220  138.4430  153.6490 C   0  0  0  0  0  3  0  0  0  0  0  0
  140.6710  138.9640  154.2500 C   0  0  0  0  0  3  0  0  0  0  0  0
  139.4250  138.8250  153.6320 C   0  0  0  0  0  0  0  0  0  0  0  0
  139.3120  138.1510  152.4140 C   0  0  0  0  0  0  0  0  0  0  0  0
  140.4800  137.6440  151.8180 C   0  0  0  0  0  3  0  0  0  0  0  0
  138.3330  139.3600  154.2610 O   0  0  0  0  0  0  0  0  0  0  0  0
  137.4810  139.0030  154.1050 H   0  0  0  0  0  0  0  0  0  0  0  0
  138.1770  137.8950  151.6880 O   0  0  0  0  0  0  0  0  0  0  0  0
  138.3230  137.2410  150.4340 C   0  0  0  0  0  1  0  0  0  0  0  0
  1  4  1  0  0  0  0
  2  6  1  1  0  0  0
  2  3  1  0  0  0  0
  2  1  1  0  0  0  0
  3 15  1  0  0  0  0
  5  3  1  0  0  0  0
  7  6  1  0  0  0  0
  8  1  1  0  0  0  0
  8  9  1  0  0  0  0
  9 10  1  0  0  0  0
 11 10  1  0  0  0  0
 11 12  1  0  0  0  0
 12 14  1  0  0  0  0
 14 13  1  0  0  0  0
 15 16  1  0  0  0  0
 16 17  1  0  0  0  0
 17 18  2  0  0  0  0
 19 18  1  0  0  0  0
 19 22  1  0  0  0  0
 20 19  2  0  0  0  0
 21 16  2  0  0  0  0
 21 20  1  0  0  0  0
 23 22  1  0  0  0  0
 24 20  1  0  0  0  0
 25 24  1  0  0  0  0
M  END
>  <MODEL>
4

>  <REMARK>
 VINA RESULT:    -6.064      1.723      2.651
 INTER + INTRA:         -10.061
 INTER:                  -9.336
 INTRA:                  -0.726
 UNBOUND:                -0.452
  Name = CHEMBL80404
  13 active torsions:
  status: ('A' for Active; 'I' for Inactive)
    1  A    between atoms: C_1  and  C_2
    2  A    between atoms: C_2  and  C_3
    3  A    between atoms: C_3  and  C_4
    4  A    between atoms: C_4  and  C_5
    5  A    between atoms: C_5  and  C_6
    6  A    between atoms: C_6  and  C_7
    7  A    between atoms: C_7  and  N_8
    8  A    between atoms: C_9  and  S_10
    9  A    between atoms: N_11  and  C_12
   10  A    between atoms: C_12  and  C_13
   11  A    between atoms: C_16  and  O_17
   12  A    between atoms: C_18  and  O_19
   13  A    between atoms: O_19  and  C_20
                            x       y       z     vdW  Elec       q    Type
                         _______ _______ _______ _____ _____    ______ ____

>  <TORSDO>
F 11

>  <SCORE>
-6.064

>  <RMSD_LB>
1.723

>  <RMSD_UB>
2.651

$$$$
CHEMBL80404
 OpenBabel10162523503D

 25 25  0  0  1  0  0  0  0  0999 V2000
  145.5920  137.8280  149.3030 N   0  0  0  0  0  0  0  0  0  0  0  0
  145.6290  136.7010  149.8880 C   0  0  1  0  0  3  0  0  0  0  0  0
  144.5680  136.2440  150.6450 N   0  0  0  0  0  0  0  0  0  0  0  0
  144.7850  138.3850  149.3890 H   0  0  0  0  0  0  0  0  0  0  0  0
  144.7580  135.5940  151.3600 H   0  0  0  0  0  0  0  0  0  0  0  0
  146.9570  135.5410  149.8140 S   0  0  0  0  0  0  0  0  0  0  0  0
  147.3170  135.3480  148.5170 H   0  0  0  0  0  0  0  0  0  0  0  0
  146.7140  138.3200  148.5050 C   0  0  0  0  0  2  0  0  0  0  0  0
  146.6070  139.8250  148.3170 C   0  0  0  0  0  2  0  0  0  0  0  0
  146.0670  140.4630  149.5960 C   0  0  0  0  0  2  0  0  0  0  0  0
  146.3650  141.9590  149.6570 C   0  0  0  0  0  2  0  0  0  0  0  0
  145.9780  142.5380  151.0190 C   0  0  0  0  0  2  0  0  0  0  0  0
  146.4050  142.2190  153.4790 C   0  0  0  0  0  1  0  0  0  0  0  0
  147.0110  142.1820  152.0860 C   0  0  0  0  0  2  0  0  0  0  0  0
  143.1940  136.6590  150.4550 C   0  0  0  0  0  2  0  0  0  0  0  0
  142.6560  137.3950  151.6710 C   0  0  0  0  0  0  0  0  0  0  0  0
  141.2870  137.4240  151.9630 C   0  0  0  0  0  3  0  0  0  0  0  0
  140.8060  138.1550  153.0540 C   0  0  0  0  0  3  0  0  0  0  0  0
  141.6850  138.8850  153.8600 C   0  0  0  0  0  0  0  0  0  0  0  0
  143.0520  138.9070  153.5760 C   0  0  0  0  0  0  0  0  0  0  0  0
  143.5200  138.1570  152.4820 C   0  0  0  0  0  3  0  0  0  0  0  0
  141.1610  139.5770  154.9190 O   0  0  0  0  0  0  0  0  0  0  0  0
  140.2780  139.4200  155.1900 H   0  0  0  0  0  0  0  0  0  0  0  0
  144.0440  139.5870  154.2320 O   0  0  0  0  0  0  0  0  0  0  0  0
  145.2200  138.8700  154.5860 C   0  0  0  0  0  1  0  0  0  0  0  0
  1  4  1  0  0  0  0
  1  2  1  0  0  0  0
  2  6  1  6  0  0  0
  2  3  1  0  0  0  0
  3  5  1  0  0  0  0
  7  6  1  0  0  0  0
  8  1  1  0  0  0  0
  9  8  1  0  0  0  0
  9 10  1  0  0  0  0
 10 11  1  0  0  0  0
 11 12  1  0  0  0  0
 12 14  1  0  0  0  0
 14 13  1  0  0  0  0
 15  3  1  0  0  0  0
 15 16  1  0  0  0  0
 16 17  2  0  0  0  0
 16 21  1  0  0  0  0
 17 18  1  0  0  0  0
 18 19  2  0  0  0  0
 19 22  1  0  0  0  0
 20 19  1  0  0  0  0
 20 24  1  0  0  0  0
 21 20  2  0  0  0  0
 22 23  1  0  0  0  0
 24 25  1  0  0  0  0
M  END
>  <MODEL>
5

>  <REMARK>
 VINA RESULT:    -5.989      1.724      2.303
 INTER + INTRA:          -9.942
 INTER:                  -9.081
 INTRA:                  -0.861
 UNBOUND:                -0.452
  Name = CHEMBL80404
  13 active torsions:
  status: ('A' for Active; 'I' for Inactive)
    1  A    between atoms: C_1  and  C_2
    2  A    between atoms: C_2  and  C_3
    3  A    between atoms: C_3  and  C_4
    4  A    between atoms: C_4  and  C_5
    5  A    between atoms: C_5  and  C_6
    6  A    between atoms: C_6  and  C_7
    7  A    between atoms: C_7  and  N_8
    8  A    between atoms: C_9  and  S_10
    9  A    between atoms: N_11  and  C_12
   10  A    between atoms: C_12  and  C_13
   11  A    between atoms: C_16  and  O_17
   12  A    between atoms: C_18  and  O_19
   13  A    between atoms: O_19  and  C_20
                            x       y       z     vdW  Elec       q    Type
                         _______ _______ _______ _____ _____    ______ ____

>  <TORSDO>
F 11

>  <SCORE>
-5.989

>  <RMSD_LB>
1.724

>  <RMSD_UB>
2.303

$$$$
CHEMBL80404
 OpenBabel10162523503D

 25 25  0  0  1  0  0  0  0  0999 V2000
  134.7610  137.0420  144.9600 N   0  0  0  0  0  0  0  0  0  0  0  0
  134.9370  137.6440  146.0640 C   0  0  1  0  0  3  0  0  0  0  0  0
  133.9120  137.7910  146.9790 N   0  0  0  0  0  0  0  0  0  0  0  0
  133.8730  136.6670  144.7550 H   0  0  0  0  0  0  0  0  0  0  0  0
  133.9590  138.5480  147.6060 H   0  0  0  0  0  0  0  0  0  0  0  0
  136.4570  138.3360  146.6330 S   0  0  0  0  0  0  0  0  0  0  0  0
  136.6030  139.5880  146.1250 H   0  0  0  0  0  0  0  0  0  0  0  0
  135.8400  136.8880  143.9850 C   0  0  0  0  0  2  0  0  0  0  0  0
  136.1020  135.4130  143.7180 C   0  0  0  0  0  2  0  0  0  0  0  0
  135.2120  134.5640  144.6240 C   0  0  0  0  0  2  0  0  0  0  0  0
  135.4090  133.0700  144.3790 C   0  0  0  0  0  2  0  0  0  0  0  0
  136.8950  132.7310  144.2390 C   0  0  0  0  0  2  0  0  0  0  0  0
  137.8630  132.5230  141.9250 C   0  0  0  0  0  1  0  0  0  0  0  0
  137.1410  131.8020  143.0520 C   0  0  0  0  0  2  0  0  0  0  0  0
  132.7730  136.9030  147.0750 C   0  0  0  0  0  2  0  0  0  0  0  0
  132.9510  135.8780  148.1840 C   0  0  0  0  0  0  0  0  0  0  0  0
  132.7600  134.5110  147.9540 C   0  0  0  0  0  3  0  0  0  0  0  0
  132.8720  133.5900  149.0010 C   0  0  0  0  0  3  0  0  0  0  0  0
  133.1570  134.0240  150.2990 C   0  0  0  0  0  0  0  0  0  0  0  0
  133.3180  135.3850  150.5690 C   0  0  0  0  0  0  0  0  0  0  0  0
  133.2140  136.2960  149.5040 C   0  0  0  0  0  3  0  0  0  0  0  0
  133.2620  133.0800  151.2840 O   0  0  0  0  0  0  0  0  0  0  0  0
  133.5390  132.2100  151.0720 H   0  0  0  0  0  0  0  0  0  0  0  0
  133.5670  135.9870  151.7750 O   0  0  0  0  0  0  0  0  0  0  0  0
  134.8770  135.8760  152.3170 C   0  0  0  0  0  1  0  0  0  0  0  0
  1  2  1  0  0  0  0
  2  6  1  1  0  0  0
  2  3  1  0  0  0  0
  3 15  1  0  0  0  0
  3  5  1  0  0  0  0
  4  1  1  0  0  0  0
  7  6  1  0  0  0  0
  8  1  1  0  0  0  0
  9  8  1  0  0  0  0
  9 10  1  0  0  0  0
 11 10  1  0  0  0  0
 12 11  1  0  0  0  0
 13 14  1  0  0  0  0
 14 12  1  0  0  0  0
 15 16  1  0  0  0  0
 16 21  1  0  0  0  0
 17 16  2  0  0  0  0
 17 18  1  0  0  0  0
 18 19  2  0  0  0  0
 19 20  1  0  0  0  0
 19 22  1  0  0  0  0
 20 24  1  0  0  0  0
 21 20  2  0  0  0  0
 23 22  1  0  0  0  0
 24 25  1  0  0  0  0
M  END
>  <MODEL>
6

>  <REMARK>
 VINA RESULT:    -5.937      9.786     11.478
 INTER + INTRA:          -9.860
 INTER:                  -9.086
 INTRA:                  -0.774
 UNBOUND:                -0.452
  Name = CHEMBL80404
  13 active torsions:
  status: ('A' for Active; 'I' for Inactive)
    1  A    between atoms: C_1  and  C_2
    2  A    between atoms: C_2  and  C_3
    3  A    between atoms: C_3  and  C_4
    4  A    between atoms: C_4  and  C_5
    5  A    between atoms: C_5  and  C_6
    6  A    between atoms: C_6  and  C_7
    7  A    between atoms: C_7  and  N_8
    8  A    between atoms: C_9  and  S_10
    9  A    between atoms: N_11  and  C_12
   10  A    between atoms: C_12  and  C_13
   11  A    between atoms: C_16  and  O_17
   12  A    between atoms: C_18  and  O_19
   13  A    between atoms: O_19  and  C_20
                            x       y       z     vdW  Elec       q    Type
                         _______ _______ _______ _____ _____    ______ ____

>  <TORSDO>
F 11

>  <SCORE>
-5.937

>  <RMSD_LB>
9.786

>  <RMSD_UB>
11.478

$$$$
CHEMBL80404
 OpenBabel10162523503D

 25 25  0  0  1  0  0  0  0  0999 V2000
  138.4780  138.3800  152.6010 N   0  0  0  0  0  0  0  0  0  0  0  0
  139.0740  137.6770  151.7280 C   0  0  1  0  0  3  0  0  0  0  0  0
  138.3740  136.9520  150.7820 N   0  0  0  0  0  0  0  0  0  0  0  0
  137.4930  138.4120  152.6000 H   0  0  0  0  0  0  0  0  0  0  0  0
  138.8100  136.1600  150.3930 H   0  0  0  0  0  0  0  0  0  0  0  0
  140.8210  137.5320  151.5340 S   0  0  0  0  0  0  0  0  0  0  0  0
  141.3500  136.9280  152.6310 H   0  0  0  0  0  0  0  0  0  0  0  0
  139.2120  139.1460  153.6080 C   0  0  0  0  0  2  0  0  0  0  0  0
  139.1260  138.4560  154.9600 C   0  0  0  0  0  2  0  0  0  0  0  0
  137.7090  137.9270  155.1760 C   0  0  0  0  0  2  0  0  0  0  0  0
  137.3760  137.7790  156.6580 C   0  0  0  0  0  2  0  0  0  0  0  0
  136.6670  136.4500  156.9280 C   0  0  0  0  0  2  0  0  0  0  0  0
  134.9520  135.1250  155.6480 C   0  0  0  0  0  1  0  0  0  0  0  0
  136.3520  135.7160  155.6260 C   0  0  0  0  0  2  0  0  0  0  0  0
  137.0410  137.2820  150.3270 C   0  0  0  0  0  2  0  0  0  0  0  0
  136.0320  136.2130  150.7170 C   0  0  0  0  0  0  0  0  0  0  0  0
  136.2850  135.3140  151.7600 C   0  0  0  0  0  3  0  0  0  0  0  0
  135.3690  134.3010  152.0650 C   0  0  0  0  0  3  0  0  0  0  0  0
  134.1950  134.1590  151.3190 C   0  0  0  0  0  0  0  0  0  0  0  0
  133.9300  135.0170  150.2490 C   0  0  0  0  0  0  0  0  0  0  0  0
  134.8550  136.0370  149.9630 C   0  0  0  0  0  3  0  0  0  0  0  0
  133.3320  133.1560  151.6650 O   0  0  0  0  0  0  0  0  0  0  0  0
  132.5580  133.0070  151.1580 H   0  0  0  0  0  0  0  0  0  0  0  0
  132.8560  135.0050  149.3970 O   0  0  0  0  0  0  0  0  0  0  0  0
  132.8970  134.1160  148.2880 C   0  0  0  0  0  1  0  0  0  0  0  0
  1  8  1  0  0  0  0
  2  6  1  6  0  0  0
  2  1  1  0  0  0  0
  3  2  1  0  0  0  0
  4  1  1  0  0  0  0
  5  3  1  0  0  0  0
  6  7  1  0  0  0  0
  8  9  1  0  0  0  0
  9 10  1  0  0  0  0
 10 11  1  0  0  0  0
 11 12  1  0  0  0  0
 14 13  1  0  0  0  0
 14 12  1  0  0  0  0
 15 16  1  0  0  0  0
 15  3  1  0  0  0  0
 16 17  1  0  0  0  0
 17 18  2  0  0  0  0
 19 22  1  0  0  0  0
 19 18  1  0  0  0  0
 20 19  2  0  0  0  0
 21 20  1  0  0  0  0
 21 16  2  0  0  0  0
 23 22  1  0  0  0  0
 24 20  1  0  0  0  0
 25 24  1  0  0  0  0
M  END
>  <MODEL>
7

>  <REMARK>
 VINA RESULT:    -5.925      5.999      8.672
 INTER + INTRA:          -9.841
 INTER:                  -8.773
 INTRA:                  -1.068
 UNBOUND:                -0.452
  Name = CHEMBL80404
  13 active torsions:
  status: ('A' for Active; 'I' for Inactive)
    1  A    between atoms: C_1  and  C_2
    2  A    between atoms: C_2  and  C_3
    3  A    between atoms: C_3  and  C_4
    4  A    between atoms: C_4  and  C_5
    5  A    between atoms: C_5  and  C_6
    6  A    between atoms: C_6  and  C_7
    7  A    between atoms: C_7  and  N_8
    8  A    between atoms: C_9  and  S_10
    9  A    between atoms: N_11  and  C_12
   10  A    between atoms: C_12  and  C_13
   11  A    between atoms: C_16  and  O_17
   12  A    between atoms: C_18  and  O_19
   13  A    between atoms: O_19  and  C_20
                            x       y       z     vdW  Elec       q    Type
                         _______ _______ _______ _____ _____    ______ ____

>  <TORSDO>
F 11

>  <SCORE>
-5.925

>  <RMSD_LB>
5.999

>  <RMSD_UB>
8.672

$$$$
CHEMBL80404
 OpenBabel10162523503D

 25 25  0  0  1  0  0  0  0  0999 V2000
  140.4590  137.6710  151.9530 N   0  0  0  0  0  0  0  0  0  0  0  0
  139.4350  138.1080  152.5630 C   0  0  1  0  0  3  0  0  0  0  0  0
  138.1660  137.9850  152.0300 N   0  0  0  0  0  0  0  0  0  0  0  0
  140.3430  137.2280  151.0810 H   0  0  0  0  0  0  0  0  0  0  0  0
  137.4830  138.6340  152.3120 H   0  0  0  0  0  0  0  0  0  0  0  0
  139.4290  138.8800  154.1500 S   0  0  0  0  0  0  0  0  0  0  0  0
  140.6970  138.9150  154.6410 H   0  0  0  0  0  0  0  0  0  0  0  0
  141.8050  137.8030  152.5090 C   0  0  0  0  0  2  0  0  0  0  0  0
  142.4340  139.1120  152.0580 C   0  0  0  0  0  2  0  0  0  0  0  0
  143.9290  138.9050  151.8210 C   0  0  0  0  0  2  0  0  0  0  0  0
  144.7520  140.1020  152.2910 C   0  0  0  0  0  2  0  0  0  0  0  0
  145.0000  141.0800  151.1410 C   0  0  0  0  0  2  0  0  0  0  0  0
  146.6390  142.2090  152.6810 C   0  0  0  0  0  1  0  0  0  0  0  0
  145.5370  142.4140  151.6550 C   0  0  0  0  0  2  0  0  0  0  0  0
  137.7780  136.9610  151.0830 C   0  0  0  0  0  2  0  0  0  0  0  0
  136.7380  136.0180  151.6680 C   0  0  0  0  0  0  0  0  0  0  0  0
  136.2420  134.9330  150.9370 C   0  0  0  0  0  3  0  0  0  0  0  0
  135.2440  134.1110  151.4710 C   0  0  0  0  0  3  0  0  0  0  0  0
  134.7120  134.3740  152.7370 C   0  0  0  0  0  0  0  0  0  0  0  0
  135.1610  135.4700  153.4780 C   0  0  0  0  0  0  0  0  0  0  0  0
  136.1730  136.2780  152.9320 C   0  0  0  0  0  3  0  0  0  0  0  0
  133.7430  133.5330  153.2140 O   0  0  0  0  0  0  0  0  0  0  0  0
  133.2520  133.0000  152.6210 H   0  0  0  0  0  0  0  0  0  0  0  0
  134.7350  135.8930  154.7100 O   0  0  0  0  0  0  0  0  0  0  0  0
  135.0350  135.0760  155.8350 C   0  0  0  0  0  1  0  0  0  0  0  0
  1  8  1  0  0  0  0
  1  2  1  0  0  0  0
  2  6  1  1  0  0  0
  3  5  1  0  0  0  0
  3  2  1  0  0  0  0
  4  1  1  0  0  0  0
  6  7  1  0  0  0  0
  9  8  1  0  0  0  0
 10  9  1  0  0  0  0
 10 11  1  0  0  0  0
 12 14  1  0  0  0  0
 12 11  1  0  0  0  0
 14 13  1  0  0  0  0
 15 16  1  0  0  0  0
 15  3  1  0  0  0  0
 16 21  1  0  0  0  0
 17 18  1  0  0  0  0
 17 16  2  0  0  0  0
 18 19  2  0  0  0  0
 19 22  1  0  0  0  0
 19 20  1  0  0  0  0
 20 24  1  0  0  0  0
 21 20  2  0  0  0  0
 23 22  1  0  0  0  0
 24 25  1  0  0  0  0
M  END
>  <MODEL>
8

>  <REMARK>
 VINA RESULT:    -5.752      3.833      4.977
 INTER + INTRA:          -9.567
 INTER:                  -9.193
 INTRA:                  -0.375
 UNBOUND:                -0.452
  Name = CHEMBL80404
  13 active torsions:
  status: ('A' for Active; 'I' for Inactive)
    1  A    between atoms: C_1  and  C_2
    2  A    between atoms: C_2  and  C_3
    3  A    between atoms: C_3  and  C_4
    4  A    between atoms: C_4  and  C_5
    5  A    between atoms: C_5  and  C_6
    6  A    between atoms: C_6  and  C_7
    7  A    between atoms: C_7  and  N_8
    8  A    between atoms: C_9  and  S_10
    9  A    between atoms: N_11  and  C_12
   10  A    between atoms: C_12  and  C_13
   11  A    between atoms: C_16  and  O_17
   12  A    between atoms: C_18  and  O_19
   13  A    between atoms: O_19  and  C_20
                            x       y       z     vdW  Elec       q    Type
                         _______ _______ _______ _____ _____    ______ ____

>  <TORSDO>
F 11

>  <SCORE>
-5.752

>  <RMSD_LB>
3.833

>  <RMSD_UB>
4.977

$$$$
CHEMBL80404
 OpenBabel10162523503D

 25 25  0  0  1  0  0  0  0  0999 V2000
  140.9130  138.1510  153.6970 N   0  0  0  0  0  0  0  0  0  0  0  0
  140.1090  137.9760  154.6650 C   0  0  1  0  0  3  0  0  0  0  0  0
  138.7400  137.9960  154.4800 N   0  0  0  0  0  0  0  0  0  0  0  0
  140.5500  138.2980  152.7940 H   0  0  0  0  0  0  0  0  0  0  0  0
  138.1740  138.2360  155.2490 H   0  0  0  0  0  0  0  0  0  0  0  0
  140.5610  137.6480  156.3380 S   0  0  0  0  0  0  0  0  0  0  0  0
  141.3820  136.5650  156.3810 H   0  0  0  0  0  0  0  0  0  0  0  0
  142.3630  138.1370  153.8870 C   0  0  0  0  0  2  0  0  0  0  0  0
  143.0690  138.0640  152.5420 C   0  0  0  0  0  2  0  0  0  0  0  0
  143.1290  139.4590  151.9200 C   0  0  0  0  0  2  0  0  0  0  0  0
  144.4640  140.1470  152.1940 C   0  0  0  0  0  2  0  0  0  0  0  0
  144.7780  141.1810  151.1100 C   0  0  0  0  0  2  0  0  0  0  0  0
  146.3240  141.9870  152.9250 C   0  0  0  0  0  1  0  0  0  0  0  0
  145.5320  142.3770  151.6880 C   0  0  0  0  0  2  0  0  0  0  0  0
  138.0830  137.6860  153.2280 C   0  0  0  0  0  2  0  0  0  0  0  0
  136.9340  136.7090  153.4220 C   0  0  0  0  0  0  0  0  0  0  0  0
  136.6110  136.2010  154.6850 C   0  0  0  0  0  3  0  0  0  0  0  0
  135.5860  135.2600  154.8330 C   0  0  0  0  0  3  0  0  0  0  0  0
  134.8820  134.7980  153.7170 C   0  0  0  0  0  0  0  0  0  0  0  0
  135.2030  135.2590  152.4390 C   0  0  0  0  0  0  0  0  0  0  0  0
  136.2270  136.2140  152.3080 C   0  0  0  0  0  3  0  0  0  0  0  0
  133.8850  133.8820  153.9210 O   0  0  0  0  0  0  0  0  0  0  0  0
  134.0520  133.1120  154.4270 H   0  0  0  0  0  0  0  0  0  0  0  0
  134.6450  134.8960  151.2410 O   0  0  0  0  0  0  0  0  0  0  0  0
  134.6470  135.8520  150.1890 C   0  0  0  0  0  1  0  0  0  0  0  0
  1  8  1  0  0  0  0
  1  2  1  0  0  0  0
  2  6  1  6  0  0  0
  3  2  1  0  0  0  0
  3  5  1  0  0  0  0
  4  1  1  0  0  0  0
  6  7  1  0  0  0  0
  9  8  1  0  0  0  0
 10 11  1  0  0  0  0
 10  9  1  0  0  0  0
 12 14  1  0  0  0  0
 12 11  1  0  0  0  0
 14 13  1  0  0  0  0
 15 16  1  0  0  0  0
 15  3  1  0  0  0  0
 16 17  1  0  0  0  0
 17 18  2  0  0  0  0
 19 22  1  0  0  0  0
 19 18  1  0  0  0  0
 20 19  2  0  0  0  0
 21 20  1  0  0  0  0
 21 16  2  0  0  0  0
 22 23  1  0  0  0  0
 24 20  1  0  0  0  0
 25 24  1  0  0  0  0
M  END
>  <MODEL>
9

>  <REMARK>
 VINA RESULT:    -5.674      3.794      5.311
 INTER + INTRA:          -9.443
 INTER:                  -8.991
 INTRA:                  -0.452
 UNBOUND:                -0.452
  Name = CHEMBL80404
  13 active torsions:
  status: ('A' for Active; 'I' for Inactive)
    1  A    between atoms: C_1  and  C_2
    2  A    between atoms: C_2  and  C_3
    3  A    between atoms: C_3  and  C_4
    4  A    between atoms: C_4  and  C_5
    5  A    between atoms: C_5  and  C_6
    6  A    between atoms: C_6  and  C_7
    7  A    between atoms: C_7  and  N_8
    8  A    between atoms: C_9  and  S_10
    9  A    between atoms: N_11  and  C_12
   10  A    between atoms: C_12  and  C_13
   11  A    between atoms: C_16  and  O_17
   12  A    between atoms: C_18  and  O_19
   13  A    between atoms: O_19  and  C_20
                            x       y       z     vdW  Elec       q    Type
                         _______ _______ _______ _____ _____    ______ ____

>  <TORSDO>
F 11

>  <SCORE>
-5.674

>  <RMSD_LB>
3.794

>  <RMSD_UB>
5.311

$$$$
