CHEMBL479650
 OpenBabel10172500513D

 30 31  0  0  1  0  0  0  0  0999 V2000
  148.5780  139.6970  153.3600 C   0  0  0  0  0  2  0  0  0  0  0  0
  148.4520  141.2070  153.3750 C   0  0  0  0  0  0  0  0  0  0  0  0
  148.8870  141.8520  154.3340 O   0  0  0  0  0  0  0  0  0  0  0  0
  147.6840  141.8690  152.2510 C   0  0  0  0  0  2  0  0  0  0  0  0
  146.2130  141.4780  152.3070 C   0  0  0  0  0  2  0  0  0  0  0  0
  144.0120  140.0490  149.5310 C   0  0  0  0  0  0  0  0  0  0  0  0
  144.4350  140.7690  150.6550 C   0  0  0  0  0  3  0  0  0  0  0  0
  145.7740  140.7250  151.0750 C   0  0  0  0  0  0  0  0  0  0  0  0
  146.7000  139.9700  150.3450 C   0  0  0  0  0  3  0  0  0  0  0  0
  146.2910  139.2470  149.2250 C   0  0  0  0  0  3  0  0  0  0  0  0
  144.9550  139.2860  148.8280 C   0  0  0  0  0  0  0  0  0  0  0  0
  141.6780  140.0200  150.0110 C   0  0  0  0  0  1  0  0  0  0  0  0
  142.7290  140.0210  149.0560 O   0  0  0  0  0  0  0  0  0  0  0  0
  144.5540  138.5630  147.7340 O   0  0  0  0  0  0  0  0  0  0  0  0
  143.6420  138.4520  147.5560 H   0  0  0  0  0  0  0  0  0  0  0  0
  147.9780  139.0820  154.6260 C   0  0  1  0  0  3  0  0  0  0  0  0
  147.1420  140.0260  155.2960 O   0  0  0  0  0  0  0  0  0  0  0  0
  146.2130  139.7710  155.1830 H   0  0  0  0  0  0  0  0  0  0  0  0
  147.1860  137.7900  154.3890 C   0  0  0  0  0  2  0  0  0  0  0  0
  145.7480  138.0690  153.9510 C   0  0  0  0  0  2  0  0  0  0  0  0
  145.3740  137.3390  152.6930 C   0  0  0  0  0  0  0  0  0  0  0  0
  144.0680  137.4010  152.2070 C   0  0  0  0  0  3  0  0  0  0  0  0
  143.7210  136.7120  151.0460 C   0  0  0  0  0  3  0  0  0  0  0  0
  144.6770  135.9600  150.3540 C   0  0  0  0  0  0  0  0  0  0  0  0
  145.9930  135.8920  150.8180 C   0  0  0  0  0  0  0  0  0  0  0  0
  146.3270  136.5890  151.9870 C   0  0  0  0  0  3  0  0  0  0  0  0
  144.2800  135.3060  149.2220 O   0  0  0  0  0  0  0  0  0  0  0  0
  144.0490  135.7930  148.4550 H   0  0  0  0  0  0  0  0  0  0  0  0
  147.0560  135.2140  150.2820 O   0  0  0  0  0  0  0  0  0  0  0  0
  148.2960  135.8940  150.1700 C   0  0  0  0  0  1  0  0  0  0  0  0
  1  2  1  0  0  0  0
  2  3  2  0  0  0  0
  4  5  1  0  0  0  0
  4  2  1  0  0  0  0
  6  7  1  0  0  0  0
  7  8  2  0  0  0  0
  8  5  1  0  0  0  0
  9  8  1  0  0  0  0
 10  9  2  0  0  0  0
 11 10  1  0  0  0  0
 11  6  2  0  0  0  0
 13  6  1  0  0  0  0
 13 12  1  0  0  0  0
 14 11  1  0  0  0  0
 15 14  1  0  0  0  0
 16  1  1  6  0  0  0
 16 17  1  0  0  0  0
 18 17  1  0  0  0  0
 19 16  1  0  0  0  0
 20 19  1  0  0  0  0
 21 20  1  0  0  0  0
 22 21  1  0  0  0  0
 23 22  2  0  0  0  0
 24 25  2  0  0  0  0
 24 23  1  0  0  0  0
 25 26  1  0  0  0  0
 26 21  2  0  0  0  0
 27 24  1  0  0  0  0
 28 27  1  0  0  0  0
 29 25  1  0  0  0  0
 30 29  1  0  0  0  0
M  END
>  <MODEL>
1

>  <REMARK>
 VINA RESULT:    -7.415      0.000      0.000
 INTER + INTRA:         -13.554
 INTER:                 -10.227
 INTRA:                  -3.327
 UNBOUND:                -1.154
  Name = CHEMBL479650
  15 active torsions:
  status: ('A' for Active; 'I' for Inactive)
    1  A    between atoms: C_1  and  O_2
    2  A    between atoms: O_2  and  C_3
    3  A    between atoms: C_5  and  C_6
    4  A    between atoms: C_6  and  C_7
    5  A    between atoms: C_7  and  C_8
    6  A    between atoms: C_8  and  C_10
    7  A    between atoms: C_10  and  C_11
    8  A    between atoms: C_11  and  O_12
    9  A    between atoms: C_11  and  C_13
   10  A    between atoms: C_13  and  C_14
   11  A    between atoms: C_14  and  C_15
   12  A    between atoms: C_18  and  O_19
   13  A    between atoms: C_20  and  O_21
   14  A    between atoms: O_21  and  C_22
   15  A    between atoms: C_26  and  O_27
                            x       y       z     vdW  Elec       q    Type
                         _______ _______ _______ _____ _____    ______ ____

>  <TORSDO>
F 13

>  <SCORE>
-7.415

>  <RMSD_LB>
0.000

>  <RMSD_UB>
0.000

$$$$
CHEMBL479650
 OpenBabel10172500513D

 30 31  0  0  1  0  0  0  0  0999 V2000
  146.1100  139.2280  149.4380 C   0  0  0  0  0  2  0  0  0  0  0  0
  144.9880  138.2120  149.5060 C   0  0  0  0  0  0  0  0  0  0  0  0
  144.3900  137.8850  148.4760 O   0  0  0  0  0  0  0  0  0  0  0  0
  144.5600  137.7130  150.8690 C   0  0  0  0  0  2  0  0  0  0  0  0
  143.4870  136.6400  150.7310 C   0  0  0  0  0  2  0  0  0  0  0  0
  140.7180  138.0960  152.9220 C   0  0  0  0  0  0  0  0  0  0  0  0
  141.9750  137.6750  152.4740 C   0  0  0  0  0  3  0  0  0  0  0  0
  142.1340  137.1210  151.1930 C   0  0  0  0  0  0  0  0  0  0  0  0
  141.0230  137.0150  150.3470 C   0  0  0  0  0  3  0  0  0  0  0  0
  139.7650  137.4290  150.7820 C   0  0  0  0  0  3  0  0  0  0  0  0
  139.6180  137.9620  152.0630 C   0  0  0  0  0  0  0  0  0  0  0  0
  141.5610  138.7600  155.0500 C   0  0  0  0  0  1  0  0  0  0  0  0
  140.4650  138.6340  154.1560 O   0  0  0  0  0  0  0  0  0  0  0  0
  138.3770  138.3550  152.4920 O   0  0  0  0  0  0  0  0  0  0  0  0
  137.6210  138.1700  151.9710 H   0  0  0  0  0  0  0  0  0  0  0  0
  145.6130  140.5600  148.8700 C   0  0  1  0  0  3  0  0  0  0  0  0
  144.2610  140.7990  149.2600 O   0  0  0  0  0  0  0  0  0  0  0  0
  144.0260  141.7200  149.0640 H   0  0  0  0  0  0  0  0  0  0  0  0
  146.4690  141.7730  149.2580 C   0  0  0  0  0  2  0  0  0  0  0  0
  145.9800  142.4310  150.5480 C   0  0  0  0  0  2  0  0  0  0  0  0
  146.7130  141.9370  151.7630 C   0  0  0  0  0  0  0  0  0  0  0  0
  148.0790  142.1820  151.9060 C   0  0  0  0  0  3  0  0  0  0  0  0
  148.7590  141.7110  153.0280 C   0  0  0  0  0  3  0  0  0  0  0  0
  148.0800  140.9980  154.0220 C   0  0  0  0  0  0  0  0  0  0  0  0
  146.7100  140.7490  153.9020 C   0  0  0  0  0  0  0  0  0  0  0  0
  146.0400  141.2270  152.7680 C   0  0  0  0  0  3  0  0  0  0  0  0
  148.7970  140.5610  155.1010 O   0  0  0  0  0  0  0  0  0  0  0  0
  148.3750  140.4490  155.9300 H   0  0  0  0  0  0  0  0  0  0  0  0
  145.8840  140.0750  154.7620 O   0  0  0  0  0  0  0  0  0  0  0  0
  145.1620  138.9600  154.2610 C   0  0  0  0  0  1  0  0  0  0  0  0
  1  2  1  0  0  0  0
  2  4  1  0  0  0  0
  3  2  2  0  0  0  0
  5  4  1  0  0  0  0
  5  8  1  0  0  0  0
  6 13  1  0  0  0  0
  7  6  1  0  0  0  0
  8  7  2  0  0  0  0
  9 10  2  0  0  0  0
  9  8  1  0  0  0  0
 10 11  1  0  0  0  0
 11 14  1  0  0  0  0
 11  6  2  0  0  0  0
 13 12  1  0  0  0  0
 15 14  1  0  0  0  0
 16 19  1  1  0  0  0
 16 17  1  0  0  0  0
 16  1  1  0  0  0  0
 18 17  1  0  0  0  0
 19 20  1  0  0  0  0
 20 21  1  0  0  0  0
 21 22  2  0  0  0  0
 21 26  1  0  0  0  0
 22 23  1  0  0  0  0
 23 24  2  0  0  0  0
 24 27  1  0  0  0  0
 25 24  1  0  0  0  0
 25 29  1  0  0  0  0
 26 25  2  0  0  0  0
 27 28  1  0  0  0  0
 30 29  1  0  0  0  0
M  END
>  <MODEL>
2

>  <REMARK>
 VINA RESULT:    -7.246      2.452      6.263
 INTER + INTRA:         -13.271
 INTER:                 -11.627
 INTRA:                  -1.644
 UNBOUND:                -1.154
  Name = CHEMBL479650
  15 active torsions:
  status: ('A' for Active; 'I' for Inactive)
    1  A    between atoms: C_1  and  O_2
    2  A    between atoms: O_2  and  C_3
    3  A    between atoms: C_5  and  C_6
    4  A    between atoms: C_6  and  C_7
    5  A    between atoms: C_7  and  C_8
    6  A    between atoms: C_8  and  C_10
    7  A    between atoms: C_10  and  C_11
    8  A    between atoms: C_11  and  O_12
    9  A    between atoms: C_11  and  C_13
   10  A    between atoms: C_13  and  C_14
   11  A    between atoms: C_14  and  C_15
   12  A    between atoms: C_18  and  O_19
   13  A    between atoms: C_20  and  O_21
   14  A    between atoms: O_21  and  C_22
   15  A    between atoms: C_26  and  O_27
                            x       y       z     vdW  Elec       q    Type
                         _______ _______ _______ _____ _____    ______ ____

>  <TORSDO>
F 13

>  <SCORE>
-7.246

>  <RMSD_LB>
2.452

>  <RMSD_UB>
6.263

$$$$
CHEMBL479650
 OpenBabel10172500513D

 30 31  0  0  1  0  0  0  0  0999 V2000
  139.1900  139.2380  153.2030 C   0  0  0  0  0  2  0  0  0  0  0  0
  139.4330  138.5600  154.5350 C   0  0  0  0  0  0  0  0  0  0  0  0
  140.5790  138.2340  154.8620 O   0  0  0  0  0  0  0  0  0  0  0  0
  138.2300  138.1960  155.3800 C   0  0  0  0  0  2  0  0  0  0  0  0
  138.4290  136.8340  156.0330 C   0  0  0  0  0  2  0  0  0  0  0  0
  135.5760  135.1580  157.9410 C   0  0  0  0  0  0  0  0  0  0  0  0
  136.7750  135.8210  157.6560 C   0  0  0  0  0  3  0  0  0  0  0  0
  137.1190  136.1480  156.3340 C   0  0  0  0  0  0  0  0  0  0  0  0
  136.2380  135.8260  155.2940 C   0  0  0  0  0  3  0  0  0  0  0  0
  135.0420  135.1630  155.5660 C   0  0  0  0  0  3  0  0  0  0  0  0
  134.7200  134.8300  156.8810 C   0  0  0  0  0  0  0  0  0  0  0  0
  136.1690  134.5620  160.1710 C   0  0  0  0  0  1  0  0  0  0  0  0
  135.1640  134.7890  159.1940 O   0  0  0  0  0  0  0  0  0  0  0  0
  133.5490  134.1660  157.1420 O   0  0  0  0  0  0  0  0  0  0  0  0
  133.1860  133.5880  156.5010 H   0  0  0  0  0  0  0  0  0  0  0  0
  139.0650  138.2110  152.0760 C   0  0  1  0  0  3  0  0  0  0  0  0
  140.2300  137.3880  152.0160 O   0  0  0  0  0  0  0  0  0  0  0  0
  139.9760  136.4880  151.7560 H   0  0  0  0  0  0  0  0  0  0  0  0
  137.8230  137.3160  152.1680 C   0  0  0  0  0  2  0  0  0  0  0  0
  137.4860  136.6600  150.8290 C   0  0  0  0  0  2  0  0  0  0  0  0
  136.2390  135.8240  150.8920 C   0  0  0  0  0  0  0  0  0  0  0  0
  136.1260  134.8020  151.8340 C   0  0  0  0  0  3  0  0  0  0  0  0
  134.9730  134.0200  151.8820 C   0  0  0  0  0  3  0  0  0  0  0  0
  133.9190  134.2560  150.9930 C   0  0  0  0  0  0  0  0  0  0  0  0
  134.0080  135.2800  150.0460 C   0  0  0  0  0  0  0  0  0  0  0  0
  135.1730  136.0570  150.0100 C   0  0  0  0  0  3  0  0  0  0  0  0
  132.8120  133.4580  151.0860 O   0  0  0  0  0  0  0  0  0  0  0  0
  132.4280  133.2840  151.9230 H   0  0  0  0  0  0  0  0  0  0  0  0
  133.0890  135.6550  149.1020 O   0  0  0  0  0  0  0  0  0  0  0  0
  132.7920  137.0370  148.9700 C   0  0  0  0  0  1  0  0  0  0  0  0
  1  2  1  0  0  0  0
  2  3  2  0  0  0  0
  2  4  1  0  0  0  0
  4  5  1  0  0  0  0
  5  8  1  0  0  0  0
  6 13  1  0  0  0  0
  7  6  1  0  0  0  0
  8  7  2  0  0  0  0
  9 10  2  0  0  0  0
  9  8  1  0  0  0  0
 10 11  1  0  0  0  0
 11 14  1  0  0  0  0
 11  6  2  0  0  0  0
 13 12  1  0  0  0  0
 15 14  1  0  0  0  0
 16 19  1  1  0  0  0
 16  1  1  0  0  0  0
 17 16  1  0  0  0  0
 18 17  1  0  0  0  0
 20 21  1  0  0  0  0
 20 19  1  0  0  0  0
 21 22  1  0  0  0  0
 22 23  2  0  0  0  0
 24 27  1  0  0  0  0
 24 23  1  0  0  0  0
 25 24  2  0  0  0  0
 26 25  1  0  0  0  0
 26 21  2  0  0  0  0
 27 28  1  0  0  0  0
 29 25  1  0  0  0  0
 30 29  1  0  0  0  0
M  END
>  <MODEL>
3

>  <REMARK>
 VINA RESULT:    -7.094      8.780     11.440
 INTER + INTRA:         -13.017
 INTER:                 -11.446
 INTRA:                  -1.571
 UNBOUND:                -1.154
  Name = CHEMBL479650
  15 active torsions:
  status: ('A' for Active; 'I' for Inactive)
    1  A    between atoms: C_1  and  O_2
    2  A    between atoms: O_2  and  C_3
    3  A    between atoms: C_5  and  C_6
    4  A    between atoms: C_6  and  C_7
    5  A    between atoms: C_7  and  C_8
    6  A    between atoms: C_8  and  C_10
    7  A    between atoms: C_10  and  C_11
    8  A    between atoms: C_11  and  O_12
    9  A    between atoms: C_11  and  C_13
   10  A    between atoms: C_13  and  C_14
   11  A    between atoms: C_14  and  C_15
   12  A    between atoms: C_18  and  O_19
   13  A    between atoms: C_20  and  O_21
   14  A    between atoms: O_21  and  C_22
   15  A    between atoms: C_26  and  O_27
                            x       y       z     vdW  Elec       q    Type
                         _______ _______ _______ _____ _____    ______ ____

>  <TORSDO>
F 13

>  <SCORE>
-7.094

>  <RMSD_LB>
8.780

>  <RMSD_UB>
11.440

$$$$
CHEMBL479650
 OpenBabel10172500513D

 30 31  0  0  1  0  0  0  0  0999 V2000
  145.6380  139.4130  149.5780 C   0  0  0  0  0  2  0  0  0  0  0  0
  144.3550  138.8280  149.0240 C   0  0  0  0  0  0  0  0  0  0  0  0
  143.3600  139.5470  148.8820 O   0  0  0  0  0  0  0  0  0  0  0  0
  144.3030  137.3370  148.7680 C   0  0  0  0  0  2  0  0  0  0  0  0
  143.0610  136.7290  149.4070 C   0  0  0  0  0  2  0  0  0  0  0  0
  143.9440  137.3270  153.0740 C   0  0  0  0  0  0  0  0  0  0  0  0
  144.0570  137.0270  151.7120 C   0  0  0  0  0  3  0  0  0  0  0  0
  142.9360  137.0850  150.8670 C   0  0  0  0  0  0  0  0  0  0  0  0
  141.6980  137.4730  151.3940 C   0  0  0  0  0  3  0  0  0  0  0  0
  141.5720  137.7710  152.7490 C   0  0  0  0  0  3  0  0  0  0  0  0
  142.6900  137.6940  153.5800 C   0  0  0  0  0  0  0  0  0  0  0  0
  146.0110  136.3420  153.7370 C   0  0  0  0  0  1  0  0  0  0  0  0
  144.9760  137.2860  153.9730 O   0  0  0  0  0  0  0  0  0  0  0  0
  142.5590  137.9760  154.9160 O   0  0  0  0  0  0  0  0  0  0  0  0
  142.2840  137.3070  155.5100 H   0  0  0  0  0  0  0  0  0  0  0  0
  146.0680  140.6490  148.7840 C   0  0  1  0  0  3  0  0  0  0  0  0
  145.3840  140.7040  147.5320 O   0  0  0  0  0  0  0  0  0  0  0  0
  145.5890  139.9080  147.0160 H   0  0  0  0  0  0  0  0  0  0  0  0
  145.8700  141.9780  149.5230 C   0  0  0  0  0  2  0  0  0  0  0  0
  147.2000  142.6450  149.8720 C   0  0  0  0  0  2  0  0  0  0  0  0
  147.6570  142.3280  151.2680 C   0  0  0  0  0  0  0  0  0  0  0  0
  149.0190  142.2260  151.5540 C   0  0  0  0  0  3  0  0  0  0  0  0
  149.4400  141.9190  152.8470 C   0  0  0  0  0  3  0  0  0  0  0  0
  148.5050  141.7180  153.8690 C   0  0  0  0  0  0  0  0  0  0  0  0
  147.1370  141.8230  153.6060 C   0  0  0  0  0  0  0  0  0  0  0  0
  146.7280  142.1310  152.3010 C   0  0  0  0  0  3  0  0  0  0  0  0
  148.9750  141.4200  155.1170 O   0  0  0  0  0  0  0  0  0  0  0  0
  149.6930  140.8260  155.2180 H   0  0  0  0  0  0  0  0  0  0  0  0
  146.0840  141.6600  154.4670 O   0  0  0  0  0  0  0  0  0  0  0  0
  145.2230  140.5500  154.2680 C   0  0  0  0  0  1  0  0  0  0  0  0
  2  1  1  0  0  0  0
  3  2  2  0  0  0  0
  4  2  1  0  0  0  0
  4  5  1  0  0  0  0
  5  8  1  0  0  0  0
  6 11  1  0  0  0  0
  6 13  1  0  0  0  0
  7  6  2  0  0  0  0
  8  9  2  0  0  0  0
  8  7  1  0  0  0  0
  9 10  1  0  0  0  0
 10 11  2  0  0  0  0
 11 14  1  0  0  0  0
 12 13  1  0  0  0  0
 14 15  1  0  0  0  0
 16 19  1  1  0  0  0
 16  1  1  0  0  0  0
 17 16  1  0  0  0  0
 18 17  1  0  0  0  0
 19 20  1  0  0  0  0
 20 21  1  0  0  0  0
 21 22  2  0  0  0  0
 21 26  1  0  0  0  0
 22 23  1  0  0  0  0
 23 24  2  0  0  0  0
 24 27  1  0  0  0  0
 25 24  1  0  0  0  0
 25 29  1  0  0  0  0
 26 25  2  0  0  0  0
 27 28  1  0  0  0  0
 30 29  1  0  0  0  0
M  END
>  <MODEL>
4

>  <REMARK>
 VINA RESULT:    -6.958      2.176      6.604
 INTER + INTRA:         -12.790
 INTER:                 -11.526
 INTRA:                  -1.264
 UNBOUND:                -1.154
  Name = CHEMBL479650
  15 active torsions:
  status: ('A' for Active; 'I' for Inactive)
    1  A    between atoms: C_1  and  O_2
    2  A    between atoms: O_2  and  C_3
    3  A    between atoms: C_5  and  C_6
    4  A    between atoms: C_6  and  C_7
    5  A    between atoms: C_7  and  C_8
    6  A    between atoms: C_8  and  C_10
    7  A    between atoms: C_10  and  C_11
    8  A    between atoms: C_11  and  O_12
    9  A    between atoms: C_11  and  C_13
   10  A    between atoms: C_13  and  C_14
   11  A    between atoms: C_14  and  C_15
   12  A    between atoms: C_18  and  O_19
   13  A    between atoms: C_20  and  O_21
   14  A    between atoms: O_21  and  C_22
   15  A    between atoms: C_26  and  O_27
                            x       y       z     vdW  Elec       q    Type
                         _______ _______ _______ _____ _____    ______ ____

>  <TORSDO>
F 13

>  <SCORE>
-6.958

>  <RMSD_LB>
2.176

>  <RMSD_UB>
6.604

$$$$
CHEMBL479650
 OpenBabel10172500513D

 30 31  0  0  1  0  0  0  0  0999 V2000
  140.6310  138.9350  152.0740 C   0  0  0  0  0  2  0  0  0  0  0  0
  142.0230  138.3840  152.3000 C   0  0  0  0  0  0  0  0  0  0  0  0
  142.2890  137.2240  151.9710 O   0  0  0  0  0  0  0  0  0  0  0  0
  143.0220  139.2510  153.0370 C   0  0  0  0  0  2  0  0  0  0  0  0
  143.9990  139.8900  152.0590 C   0  0  0  0  0  2  0  0  0  0  0  0
  147.1280  140.0820  154.2410 C   0  0  0  0  0  0  0  0  0  0  0  0
  146.0000  139.5880  153.5740 C   0  0  0  0  0  3  0  0  0  0  0  0
  145.2310  140.4230  152.7470 C   0  0  0  0  0  0  0  0  0  0  0  0
  145.6150  141.7580  152.5690 C   0  0  0  0  0  3  0  0  0  0  0  0
  146.7350  142.2620  153.2290 C   0  0  0  0  0  3  0  0  0  0  0  0
  147.4800  141.4260  154.0610 C   0  0  0  0  0  0  0  0  0  0  0  0
  147.2890  138.4700  155.9880 C   0  0  0  0  0  1  0  0  0  0  0  0
  147.9290  139.3480  155.0750 O   0  0  0  0  0  0  0  0  0  0  0  0
  148.5730  141.9290  154.7190 O   0  0  0  0  0  0  0  0  0  0  0  0
  148.4570  142.5450  155.4150 H   0  0  0  0  0  0  0  0  0  0  0  0
  139.7440  138.7120  153.3020 C   0  0  1  0  0  3  0  0  0  0  0  0
  139.2830  139.9590  153.8210 O   0  0  0  0  0  0  0  0  0  0  0  0
  140.0200  140.4250  154.2450 H   0  0  0  0  0  0  0  0  0  0  0  0
  138.5400  137.7950  153.0560 C   0  0  0  0  0  2  0  0  0  0  0  0
  137.6710  137.6400  154.3040 C   0  0  0  0  0  2  0  0  0  0  0  0
  136.6730  136.5240  154.1790 C   0  0  0  0  0  0  0  0  0  0  0  0
  136.1100  135.9550  155.3220 C   0  0  0  0  0  3  0  0  0  0  0  0
  135.1940  134.9110  155.2030 C   0  0  0  0  0  3  0  0  0  0  0  0
  134.8250  134.4300  153.9430 C   0  0  0  0  0  0  0  0  0  0  0  0
  135.3710  134.9910  152.7850 C   0  0  0  0  0  0  0  0  0  0  0  0
  136.2910  136.0390  152.9190 C   0  0  0  0  0  3  0  0  0  0  0  0
  133.9220  133.4050  153.8870 O   0  0  0  0  0  0  0  0  0  0  0  0
  133.1200  133.4600  154.3680 H   0  0  0  0  0  0  0  0  0  0  0  0
  135.1350  134.6560  151.4780 O   0  0  0  0  0  0  0  0  0  0  0  0
  134.3290  135.5260  150.6990 C   0  0  0  0  0  1  0  0  0  0  0  0
  1  2  1  0  0  0  0
  2  4  1  0  0  0  0
  3  2  2  0  0  0  0
  5  8  1  0  0  0  0
  5  4  1  0  0  0  0
  6 13  1  0  0  0  0
  7  6  2  0  0  0  0
  8  7  1  0  0  0  0
  9  8  2  0  0  0  0
  9 10  1  0  0  0  0
 10 11  2  0  0  0  0
 11  6  1  0  0  0  0
 11 14  1  0  0  0  0
 13 12  1  0  0  0  0
 14 15  1  0  0  0  0
 16  1  1  6  0  0  0
 16 17  1  0  0  0  0
 17 18  1  0  0  0  0
 19 16  1  0  0  0  0
 19 20  1  0  0  0  0
 21 20  1  0  0  0  0
 21 22  1  0  0  0  0
 23 22  2  0  0  0  0
 24 23  1  0  0  0  0
 25 26  1  0  0  0  0
 25 24  2  0  0  0  0
 26 21  2  0  0  0  0
 27 24  1  0  0  0  0
 27 28  1  0  0  0  0
 29 25  1  0  0  0  0
 30 29  1  0  0  0  0
M  END
>  <MODEL>
5

>  <REMARK>
 VINA RESULT:    -6.914      5.783      8.343
 INTER + INTRA:         -12.716
 INTER:                 -12.069
 INTRA:                  -0.647
 UNBOUND:                -1.154
  Name = CHEMBL479650
  15 active torsions:
  status: ('A' for Active; 'I' for Inactive)
    1  A    between atoms: C_1  and  O_2
    2  A    between atoms: O_2  and  C_3
    3  A    between atoms: C_5  and  C_6
    4  A    between atoms: C_6  and  C_7
    5  A    between atoms: C_7  and  C_8
    6  A    between atoms: C_8  and  C_10
    7  A    between atoms: C_10  and  C_11
    8  A    between atoms: C_11  and  O_12
    9  A    between atoms: C_11  and  C_13
   10  A    between atoms: C_13  and  C_14
   11  A    between atoms: C_14  and  C_15
   12  A    between atoms: C_18  and  O_19
   13  A    between atoms: C_20  and  O_21
   14  A    between atoms: O_21  and  C_22
   15  A    between atoms: C_26  and  O_27
                            x       y       z     vdW  Elec       q    Type
                         _______ _______ _______ _____ _____    ______ ____

>  <TORSDO>
F 13

>  <SCORE>
-6.914

>  <RMSD_LB>
5.783

>  <RMSD_UB>
8.343

$$$$
CHEMBL479650
 OpenBabel10172500513D

 30 31  0  0  1  0  0  0  0  0999 V2000
  147.1010  137.8410  148.6450 C   0  0  0  0  0  2  0  0  0  0  0  0
  146.2500  136.9110  149.4850 C   0  0  0  0  0  0  0  0  0  0  0  0
  145.0210  137.0320  149.4840 O   0  0  0  0  0  0  0  0  0  0  0  0
  146.9530  135.9290  150.3960 C   0  0  0  0  0  2  0  0  0  0  0  0
  147.9700  136.6480  151.2740 C   0  0  0  0  0  2  0  0  0  0  0  0
  147.2710  139.1940  154.0340 C   0  0  0  0  0  0  0  0  0  0  0  0
  147.8470  138.5550  152.9300 C   0  0  0  0  0  3  0  0  0  0  0  0
  147.3220  137.3460  152.4440 C   0  0  0  0  0  0  0  0  0  0  0  0
  146.1940  136.7900  153.0590 C   0  0  0  0  0  3  0  0  0  0  0  0
  145.6130  137.4160  154.1610 C   0  0  0  0  0  3  0  0  0  0  0  0
  146.1540  138.6080  154.6440 C   0  0  0  0  0  0  0  0  0  0  0  0
  148.7780  141.0370  153.9150 C   0  0  0  0  0  1  0  0  0  0  0  0
  147.7210  140.3650  154.5840 O   0  0  0  0  0  0  0  0  0  0  0  0
  145.5870  139.2130  155.7350 O   0  0  0  0  0  0  0  0  0  0  0  0
  145.9100  140.0410  156.0310 H   0  0  0  0  0  0  0  0  0  0  0  0
  146.3550  138.2830  147.3840 C   0  0  1  0  0  3  0  0  0  0  0  0
  145.6120  137.1960  146.8330 O   0  0  0  0  0  0  0  0  0  0  0  0
  145.1480  136.7290  147.5450 H   0  0  0  0  0  0  0  0  0  0  0  0
  145.4160  139.4790  147.5900 C   0  0  0  0  0  2  0  0  0  0  0  0
  146.1820  140.7580  147.9300 C   0  0  0  0  0  2  0  0  0  0  0  0
  146.0210  141.1630  149.3680 C   0  0  0  0  0  0  0  0  0  0  0  0
  146.7710  142.2190  149.8870 C   0  0  0  0  0  3  0  0  0  0  0  0
  146.6290  142.5840  151.2250 C   0  0  0  0  0  3  0  0  0  0  0  0
  145.7320  141.9040  152.0550 C   0  0  0  0  0  0  0  0  0  0  0  0
  144.9650  140.8480  151.5530 C   0  0  0  0  0  0  0  0  0  0  0  0
  145.1190  140.4920  150.2070 C   0  0  0  0  0  3  0  0  0  0  0  0
  145.6350  142.3050  153.3580 O   0  0  0  0  0  0  0  0  0  0  0  0
  144.8490  142.1390  153.8420 H   0  0  0  0  0  0  0  0  0  0  0  0
  144.0460  140.0710  152.2070 O   0  0  0  0  0  0  0  0  0  0  0  0
  143.1360  139.3120  151.4260 C   0  0  0  0  0  1  0  0  0  0  0  0
  1  2  1  0  0  0  0
  2  4  1  0  0  0  0
  3  2  2  0  0  0  0
  4  5  1  0  0  0  0
  5  8  1  0  0  0  0
  6 13  1  0  0  0  0
  6 11  1  0  0  0  0
  7  6  2  0  0  0  0
  8  7  1  0  0  0  0
  8  9  2  0  0  0  0
  9 10  1  0  0  0  0
 10 11  2  0  0  0  0
 11 14  1  0  0  0  0
 12 13  1  0  0  0  0
 14 15  1  0  0  0  0
 16 19  1  1  0  0  0
 16  1  1  0  0  0  0
 17 16  1  0  0  0  0
 17 18  1  0  0  0  0
 19 20  1  0  0  0  0
 20 21  1  0  0  0  0
 21 22  2  0  0  0  0
 21 26  1  0  0  0  0
 22 23  1  0  0  0  0
 23 24  2  0  0  0  0
 24 27  1  0  0  0  0
 25 24  1  0  0  0  0
 25 29  1  0  0  0  0
 26 25  2  0  0  0  0
 27 28  1  0  0  0  0
 30 29  1  0  0  0  0
M  END
>  <MODEL>
6

>  <REMARK>
 VINA RESULT:    -6.903      1.699      6.387
 INTER + INTRA:         -12.698
 INTER:                 -10.307
 INTRA:                  -2.391
 UNBOUND:                -1.154
  Name = CHEMBL479650
  15 active torsions:
  status: ('A' for Active; 'I' for Inactive)
    1  A    between atoms: C_1  and  O_2
    2  A    between atoms: O_2  and  C_3
    3  A    between atoms: C_5  and  C_6
    4  A    between atoms: C_6  and  C_7
    5  A    between atoms: C_7  and  C_8
    6  A    between atoms: C_8  and  C_10
    7  A    between atoms: C_10  and  C_11
    8  A    between atoms: C_11  and  O_12
    9  A    between atoms: C_11  and  C_13
   10  A    between atoms: C_13  and  C_14
   11  A    between atoms: C_14  and  C_15
   12  A    between atoms: C_18  and  O_19
   13  A    between atoms: C_20  and  O_21
   14  A    between atoms: O_21  and  C_22
   15  A    between atoms: C_26  and  O_27
                            x       y       z     vdW  Elec       q    Type
                         _______ _______ _______ _____ _____    ______ ____

>  <TORSDO>
F 13

>  <SCORE>
-6.903

>  <RMSD_LB>
1.699

>  <RMSD_UB>
6.387

$$$$
CHEMBL479650
 OpenBabel10172500513D

 30 31  0  0  1  0  0  0  0  0999 V2000
  144.4390  138.1360  149.0540 C   0  0  0  0  0  2  0  0  0  0  0  0
  144.6140  139.6190  149.3030 C   0  0  0  0  0  0  0  0  0  0  0  0
  144.8020  140.3860  148.3530 O   0  0  0  0  0  0  0  0  0  0  0  0
  144.6670  140.1000  150.7380 C   0  0  0  0  0  2  0  0  0  0  0  0
  145.0950  141.5610  150.7960 C   0  0  0  0  0  2  0  0  0  0  0  0
  148.1570  141.3910  153.0720 C   0  0  0  0  0  0  0  0  0  0  0  0
  146.8610  141.2170  152.5720 C   0  0  0  0  0  3  0  0  0  0  0  0
  146.5030  141.7250  151.3120 C   0  0  0  0  0  0  0  0  0  0  0  0
  147.4630  142.3900  150.5400 C   0  0  0  0  0  3  0  0  0  0  0  0
  148.7560  142.5710  151.0280 C   0  0  0  0  0  3  0  0  0  0  0  0
  149.0950  142.0770  152.2880 C   0  0  0  0  0  0  0  0  0  0  0  0
  148.1250  139.6750  154.7260 C   0  0  0  0  0  1  0  0  0  0  0  0
  148.5930  140.9440  154.2910 O   0  0  0  0  0  0  0  0  0  0  0  0
  150.3640  142.2690  152.7700 O   0  0  0  0  0  0  0  0  0  0  0  0
  150.8210  141.5610  153.1780 H   0  0  0  0  0  0  0  0  0  0  0  0
  143.1370  137.8530  148.3000 C   0  0  1  0  0  3  0  0  0  0  0  0
  143.2800  136.7040  147.4650 O   0  0  0  0  0  0  0  0  0  0  0  0
  143.0270  136.9320  146.5560 H   0  0  0  0  0  0  0  0  0  0  0  0
  141.9100  137.6690  149.2010 C   0  0  0  0  0  2  0  0  0  0  0  0
  142.1930  136.7270  150.3720 C   0  0  0  0  0  2  0  0  0  0  0  0
  141.8460  137.3360  151.7010 C   0  0  0  0  0  0  0  0  0  0  0  0
  142.8340  137.5180  152.6680 C   0  0  0  0  0  3  0  0  0  0  0  0
  142.5070  138.0710  153.9050 C   0  0  0  0  0  3  0  0  0  0  0  0
  141.1910  138.4550  154.1860 C   0  0  0  0  0  0  0  0  0  0  0  0
  140.1870  138.2890  153.2270 C   0  0  0  0  0  0  0  0  0  0  0  0
  140.5310  137.7310  151.9890 C   0  0  0  0  0  3  0  0  0  0  0  0
  140.9280  138.9920  155.4150 O   0  0  0  0  0  0  0  0  0  0  0  0
  140.7890  139.9160  155.5030 H   0  0  0  0  0  0  0  0  0  0  0  0
  138.8560  138.6010  153.3190 O   0  0  0  0  0  0  0  0  0  0  0  0
  137.9920  137.6640  153.9440 C   0  0  0  0  0  1  0  0  0  0  0  0
  1  2  1  0  0  0  0
  2  4  1  0  0  0  0
  3  2  2  0  0  0  0
  4  5  1  0  0  0  0
  5  8  1  0  0  0  0
  6 13  1  0  0  0  0
  7  6  1  0  0  0  0
  8  7  2  0  0  0  0
  9 10  2  0  0  0  0
  9  8  1  0  0  0  0
 10 11  1  0  0  0  0
 11 14  1  0  0  0  0
 11  6  2  0  0  0  0
 13 12  1  0  0  0  0
 14 15  1  0  0  0  0
 16  1  1  1  0  0  0
 16 19  1  0  0  0  0
 17 16  1  0  0  0  0
 18 17  1  0  0  0  0
 19 20  1  0  0  0  0
 20 21  1  0  0  0  0
 21 26  2  0  0  0  0
 21 22  1  0  0  0  0
 22 23  2  0  0  0  0
 23 24  1  0  0  0  0
 24 27  1  0  0  0  0
 25 29  1  0  0  0  0
 25 24  2  0  0  0  0
 26 25  1  0  0  0  0
 27 28  1  0  0  0  0
 29 30  1  0  0  0  0
M  END
>  <MODEL>
7

>  <REMARK>
 VINA RESULT:    -6.798      2.751      6.381
 INTER + INTRA:         -12.522
 INTER:                 -11.136
 INTRA:                  -1.386
 UNBOUND:                -1.154
  Name = CHEMBL479650
  15 active torsions:
  status: ('A' for Active; 'I' for Inactive)
    1  A    between atoms: C_1  and  O_2
    2  A    between atoms: O_2  and  C_3
    3  A    between atoms: C_5  and  C_6
    4  A    between atoms: C_6  and  C_7
    5  A    between atoms: C_7  and  C_8
    6  A    between atoms: C_8  and  C_10
    7  A    between atoms: C_10  and  C_11
    8  A    between atoms: C_11  and  O_12
    9  A    between atoms: C_11  and  C_13
   10  A    between atoms: C_13  and  C_14
   11  A    between atoms: C_14  and  C_15
   12  A    between atoms: C_18  and  O_19
   13  A    between atoms: C_20  and  O_21
   14  A    between atoms: O_21  and  C_22
   15  A    between atoms: C_26  and  O_27
                            x       y       z     vdW  Elec       q    Type
                         _______ _______ _______ _____ _____    ______ ____

>  <TORSDO>
F 13

>  <SCORE>
-6.798

>  <RMSD_LB>
2.751

>  <RMSD_UB>
6.381

$$$$
CHEMBL479650
 OpenBabel10172500513D

 30 31  0  0  1  0  0  0  0  0999 V2000
  140.4570  138.8600  152.0070 C   0  0  0  0  0  2  0  0  0  0  0  0
  141.6740  137.9920  152.2540 C   0  0  0  0  0  0  0  0  0  0  0  0
  142.2210  137.4150  151.3090 O   0  0  0  0  0  0  0  0  0  0  0  0
  142.1120  137.7680  153.6850 C   0  0  0  0  0  2  0  0  0  0  0  0
  143.0590  138.8750  154.1330 C   0  0  0  0  0  2  0  0  0  0  0  0
  146.8410  138.8710  154.6620 C   0  0  0  0  0  0  0  0  0  0  0  0
  145.5060  139.2860  154.6200 C   0  0  0  0  0  3  0  0  0  0  0  0
  144.4910  138.4070  154.2060 C   0  0  0  0  0  0  0  0  0  0  0  0
  144.8210  137.0930  153.8560 C   0  0  0  0  0  3  0  0  0  0  0  0
  146.1480  136.6670  153.8920 C   0  0  0  0  0  3  0  0  0  0  0  0
  147.1480  137.5550  154.2890 C   0  0  0  0  0  0  0  0  0  0  0  0
  148.2900  140.6920  154.1470 C   0  0  0  0  0  1  0  0  0  0  0  0
  147.8960  139.6590  155.0390 O   0  0  0  0  0  0  0  0  0  0  0  0
  148.4530  137.1370  154.3100 O   0  0  0  0  0  0  0  0  0  0  0  0
  148.6940  136.3790  154.8050 H   0  0  0  0  0  0  0  0  0  0  0  0
  139.4950  138.8110  153.1960 C   0  0  1  0  0  3  0  0  0  0  0  0
  138.9330  140.1010  153.4410 O   0  0  0  0  0  0  0  0  0  0  0  0
  139.5930  140.7830  153.2440 H   0  0  0  0  0  0  0  0  0  0  0  0
  138.3610  137.7890  153.0530 C   0  0  0  0  0  2  0  0  0  0  0  0
  137.6550  137.5230  154.3830 C   0  0  0  0  0  2  0  0  0  0  0  0
  136.6520  136.4080  154.2920 C   0  0  0  0  0  0  0  0  0  0  0  0
  136.0320  135.9260  155.4450 C   0  0  0  0  0  3  0  0  0  0  0  0
  135.1120  134.8830  155.3600 C   0  0  0  0  0  3  0  0  0  0  0  0
  134.7960  134.3150  154.1220 C   0  0  0  0  0  0  0  0  0  0  0  0
  135.3990  134.7880  152.9530 C   0  0  0  0  0  0  0  0  0  0  0  0
  136.3230  135.8360  153.0540 C   0  0  0  0  0  3  0  0  0  0  0  0
  133.8860  133.2950  154.0980 O   0  0  0  0  0  0  0  0  0  0  0  0
  133.8820  132.6550  154.7830 H   0  0  0  0  0  0  0  0  0  0  0  0
  135.2190  134.3610  151.6640 O   0  0  0  0  0  0  0  0  0  0  0  0
  134.1220  134.8850  150.9320 C   0  0  0  0  0  1  0  0  0  0  0  0
  1  2  1  0  0  0  0
  2  4  1  0  0  0  0
  3  2  2  0  0  0  0
  4  5  1  0  0  0  0
  5  8  1  0  0  0  0
  6 13  1  0  0  0  0
  7  6  1  0  0  0  0
  8  7  2  0  0  0  0
  9 10  2  0  0  0  0
  9  8  1  0  0  0  0
 10 11  1  0  0  0  0
 11 14  1  0  0  0  0
 11  6  2  0  0  0  0
 12 13  1  0  0  0  0
 14 15  1  0  0  0  0
 16  1  1  6  0  0  0
 16 17  1  0  0  0  0
 18 17  1  0  0  0  0
 19 16  1  0  0  0  0
 19 20  1  0  0  0  0
 21 20  1  0  0  0  0
 21 22  1  0  0  0  0
 23 22  2  0  0  0  0
 24 23  1  0  0  0  0
 25 26  1  0  0  0  0
 25 24  2  0  0  0  0
 26 21  2  0  0  0  0
 27 24  1  0  0  0  0
 27 28  1  0  0  0  0
 29 25  1  0  0  0  0
 30 29  1  0  0  0  0
M  END
>  <MODEL>
8

>  <REMARK>
 VINA RESULT:    -6.779      5.905      8.551
 INTER + INTRA:         -12.490
 INTER:                 -11.600
 INTRA:                  -0.890
 UNBOUND:                -1.154
  Name = CHEMBL479650
  15 active torsions:
  status: ('A' for Active; 'I' for Inactive)
    1  A    between atoms: C_1  and  O_2
    2  A    between atoms: O_2  and  C_3
    3  A    between atoms: C_5  and  C_6
    4  A    between atoms: C_6  and  C_7
    5  A    between atoms: C_7  and  C_8
    6  A    between atoms: C_8  and  C_10
    7  A    between atoms: C_10  and  C_11
    8  A    between atoms: C_11  and  O_12
    9  A    between atoms: C_11  and  C_13
   10  A    between atoms: C_13  and  C_14
   11  A    between atoms: C_14  and  C_15
   12  A    between atoms: C_18  and  O_19
   13  A    between atoms: C_20  and  O_21
   14  A    between atoms: O_21  and  C_22
   15  A    between atoms: C_26  and  O_27
                            x       y       z     vdW  Elec       q    Type
                         _______ _______ _______ _____ _____    ______ ____

>  <TORSDO>
F 13

>  <SCORE>
-6.779

>  <RMSD_LB>
5.905

>  <RMSD_UB>
8.551

$$$$
CHEMBL479650
 OpenBabel10172500513D

 30 31  0  0  1  0  0  0  0  0999 V2000
  144.2920  139.1160  148.1700 C   0  0  0  0  0  2  0  0  0  0  0  0
  145.6820  138.6920  148.5960 C   0  0  0  0  0  0  0  0  0  0  0  0
  146.3790  138.0120  147.8360 O   0  0  0  0  0  0  0  0  0  0  0  0
  146.1300  139.0250  150.0030 C   0  0  0  0  0  2  0  0  0  0  0  0
  146.8460  140.3690  150.0320 C   0  0  0  0  0  2  0  0  0  0  0  0
  147.5570  140.2540  153.7830 C   0  0  0  0  0  0  0  0  0  0  0  0
  147.0250  139.9640  152.5220 C   0  0  0  0  0  3  0  0  0  0  0  0
  147.4510  140.6670  151.3820 C   0  0  0  0  0  0  0  0  0  0  0  0
  148.4380  141.6500  151.5100 C   0  0  0  0  0  3  0  0  0  0  0  0
  148.9750  141.9500  152.7610 C   0  0  0  0  0  3  0  0  0  0  0  0
  148.5310  141.2560  153.8870 C   0  0  0  0  0  0  0  0  0  0  0  0
  145.9860  138.8890  154.9430 C   0  0  0  0  0  1  0  0  0  0  0  0
  147.1950  139.6330  154.9480 O   0  0  0  0  0  0  0  0  0  0  0  0
  149.0520  141.5630  155.1180 O   0  0  0  0  0  0  0  0  0  0  0  0
  149.5810  142.3290  155.2240 H   0  0  0  0  0  0  0  0  0  0  0  0
  143.3060  139.0210  149.3370 C   0  0  1  0  0  3  0  0  0  0  0  0
  142.2890  140.0160  149.2170 O   0  0  0  0  0  0  0  0  0  0  0  0
  141.4250  139.6200  149.4070 H   0  0  0  0  0  0  0  0  0  0  0  0
  142.6450  137.6460  149.4970 C   0  0  0  0  0  2  0  0  0  0  0  0
  142.6770  137.1590  150.9450 C   0  0  0  0  0  2  0  0  0  0  0  0
  141.4310  137.5160  151.7040 C   0  0  0  0  0  0  0  0  0  0  0  0
  140.1800  137.3860  151.1000 C   0  0  0  0  0  3  0  0  0  0  0  0
  139.0260  137.7310  151.8020 C   0  0  0  0  0  3  0  0  0  0  0  0
  139.1090  138.2010  153.1170 C   0  0  0  0  0  0  0  0  0  0  0  0
  140.3510  138.3310  153.7440 C   0  0  0  0  0  0  0  0  0  0  0  0
  141.5030  137.9820  153.0260 C   0  0  0  0  0  3  0  0  0  0  0  0
  137.9450  138.5240  153.7560 O   0  0  0  0  0  0  0  0  0  0  0  0
  137.9300  139.2280  154.3740 H   0  0  0  0  0  0  0  0  0  0  0  0
  140.6290  138.7710  155.0110 O   0  0  0  0  0  0  0  0  0  0  0  0
  140.5210  137.8440  156.0800 C   0  0  0  0  0  1  0  0  0  0  0  0
  1  2  1  0  0  0  0
  2  4  1  0  0  0  0
  3  2  2  0  0  0  0
  4  5  1  0  0  0  0
  5  8  1  0  0  0  0
  6 11  1  0  0  0  0
  6 13  1  0  0  0  0
  7  6  2  0  0  0  0
  8  9  2  0  0  0  0
  8  7  1  0  0  0  0
  9 10  1  0  0  0  0
 10 11  2  0  0  0  0
 11 14  1  0  0  0  0
 12 13  1  0  0  0  0
 14 15  1  0  0  0  0
 16  1  1  6  0  0  0
 16 19  1  0  0  0  0
 17 16  1  0  0  0  0
 17 18  1  0  0  0  0
 19 20  1  0  0  0  0
 20 21  1  0  0  0  0
 21 26  1  0  0  0  0
 22 21  2  0  0  0  0
 22 23  1  0  0  0  0
 23 24  2  0  0  0  0
 24 25  1  0  0  0  0
 24 27  1  0  0  0  0
 25 29  1  0  0  0  0
 26 25  2  0  0  0  0
 27 28  1  0  0  0  0
 29 30  1  0  0  0  0
M  END
>  <MODEL>
9

>  <REMARK>
 VINA RESULT:    -6.723      2.847      6.281
 INTER + INTRA:         -12.397
 INTER:                 -11.243
 INTRA:                  -1.154
 UNBOUND:                -1.154
  Name = CHEMBL479650
  15 active torsions:
  status: ('A' for Active; 'I' for Inactive)
    1  A    between atoms: C_1  and  O_2
    2  A    between atoms: O_2  and  C_3
    3  A    between atoms: C_5  and  C_6
    4  A    between atoms: C_6  and  C_7
    5  A    between atoms: C_7  and  C_8
    6  A    between atoms: C_8  and  C_10
    7  A    between atoms: C_10  and  C_11
    8  A    between atoms: C_11  and  O_12
    9  A    between atoms: C_11  and  C_13
   10  A    between atoms: C_13  and  C_14
   11  A    between atoms: C_14  and  C_15
   12  A    between atoms: C_18  and  O_19
   13  A    between atoms: C_20  and  O_21
   14  A    between atoms: O_21  and  C_22
   15  A    between atoms: C_26  and  O_27
                            x       y       z     vdW  Elec       q    Type
                         _______ _______ _______ _____ _____    ______ ____

>  <TORSDO>
F 13

>  <SCORE>
-6.723

>  <RMSD_LB>
2.847

>  <RMSD_UB>
6.281

$$$$
