CHEMBL1183595
 OpenBabel10172500563D

 24 24  0  0  0  0  0  0  0  0999 V2000
  146.9420  140.7560  154.6160 N   0  0  0  0  0  0  0  0  0  0  0  0
  148.1820  140.1690  154.6270 C   0  0  0  0  0  0  0  0  0  0  0  0
  149.1830  140.6720  154.1090 O   0  0  0  0  0  0  0  0  0  0  0  0
  146.1950  140.3060  155.0740 H   0  0  0  0  0  0  0  0  0  0  0  0
  146.7020  142.0140  153.9490 C   0  0  0  0  0  2  0  0  0  0  0  0
  145.0720  141.1900  150.5720 C   0  0  0  0  0  0  0  0  0  0  0  0
  145.2950  141.3000  151.9510 C   0  0  0  0  0  3  0  0  0  0  0  0
  146.4750  141.8730  152.4620 C   0  0  0  0  0  0  0  0  0  0  0  0
  147.4380  142.3350  151.5560 C   0  0  0  0  0  3  0  0  0  0  0  0
  147.2300  142.2310  150.1770 C   0  0  0  0  0  3  0  0  0  0  0  0
  146.0560  141.6580  149.6920 C   0  0  0  0  0  0  0  0  0  0  0  0
  143.8150  139.2340  150.0700 C   0  0  0  0  0  1  0  0  0  0  0  0
  143.9440  140.6490  150.0080 O   0  0  0  0  0  0  0  0  0  0  0  0
  145.8580  141.5480  148.3400 O   0  0  0  0  0  0  0  0  0  0  0  0
  146.1880  142.2090  147.7630 H   0  0  0  0  0  0  0  0  0  0  0  0
  148.2200  138.8220  155.3140 C   0  0  0  0  0  2  0  0  0  0  0  0
  146.8500  138.1460  155.3160 C   0  0  0  0  0  2  0  0  0  0  0  0
  146.7220  137.0830  154.2230 C   0  0  0  0  0  2  0  0  0  0  0  0
  145.8680  137.6100  153.0690 C   0  0  0  0  0  2  0  0  0  0  0  0
  144.4960  138.0640  153.5550 C   0  0  0  0  0  2  0  0  0  0  0  0
  143.8190  136.9640  154.2330 N   0  0  0  0  0  4  0  0  0  0  0  0
  144.2530  136.0800  153.9650 H   0  0  0  0  0  0  0  0  0  0  0  0
  142.8350  136.9540  153.9660 H   0  0  0  0  0  0  0  0  0  0  0  0
  143.8960  137.0880  155.2440 H   0  0  0  0  0  0  0  0  0  0  0  0
  1  2  1  0  0  0  0
  1  4  1  0  0  0  0
  2 16  1  0  0  0  0
  3  2  2  0  0  0  0
  5  1  1  0  0  0  0
  6  7  1  0  0  0  0
  7  8  2  0  0  0  0
  8  5  1  0  0  0  0
  9  8  1  0  0  0  0
 10  9  2  0  0  0  0
 11 10  1  0  0  0  0
 11  6  2  0  0  0  0
 13 12  1  0  0  0  0
 13  6  1  0  0  0  0
 14 11  1  0  0  0  0
 15 14  1  0  0  0  0
 16 17  1  0  0  0  0
 18 17  1  0  0  0  0
 19 20  1  0  0  0  0
 19 18  1  0  0  0  0
 20 21  1  0  0  0  0
 21 24  1  0  0  0  0
 22 21  1  0  0  0  0
 23 21  1  0  0  0  0
M  END
>  <MODEL>
1

>  <REMARK>
 VINA RESULT:    -5.826      0.000      0.000
 INTER + INTRA:          -9.642
 INTER:                  -8.713
 INTRA:                  -0.928
 UNBOUND:                -0.750
  Name = CHEMBL1183595
  11 active torsions:
  status: ('A' for Active; 'I' for Inactive)
    1  A    between atoms: C_1  and  O_2
    2  A    between atoms: O_2  and  C_3
    3  A    between atoms: C_5  and  C_6
    4  A    between atoms: C_6  and  N_7
    5  A    between atoms: C_8  and  C_10
    6  A    between atoms: C_10  and  C_11
    7  A    between atoms: C_11  and  C_12
    8  A    between atoms: C_12  and  C_13
    9  A    between atoms: C_13  and  C_14
   10  A    between atoms: C_14  and  N_15
   11  A    between atoms: C_18  and  O_19
                            x       y       z     vdW  Elec       q    Type
                         _______ _______ _______ _____ _____    ______ ____

>  <TORSDO>
F 10

>  <SCORE>
-5.826

>  <RMSD_LB>
0.000

>  <RMSD_UB>
0.000

$$$$
CHEMBL1183595
 OpenBabel10172500563D

 24 24  0  0  0  0  0  0  0  0999 V2000
  144.2860  138.8120  152.1070 N   0  0  0  0  0  0  0  0  0  0  0  0
  144.8120  139.8060  152.8930 C   0  0  0  0  0  0  0  0  0  0  0  0
  144.8300  139.7670  154.1270 O   0  0  0  0  0  0  0  0  0  0  0  0
  144.3320  138.9010  151.1280 H   0  0  0  0  0  0  0  0  0  0  0  0
  143.6670  137.6380  152.6780 C   0  0  0  0  0  2  0  0  0  0  0  0
  140.1820  138.3080  154.1450 C   0  0  0  0  0  0  0  0  0  0  0  0
  141.5720  138.1730  154.0220 C   0  0  0  0  0  3  0  0  0  0  0  0
  142.1670  137.7580  152.8160 C   0  0  0  0  0  0  0  0  0  0  0  0
  141.3350  137.4750  151.7250 C   0  0  0  0  0  3  0  0  0  0  0  0
  139.9470  137.6030  151.8330 C   0  0  0  0  0  3  0  0  0  0  0  0
  139.3770  138.0140  153.0380 C   0  0  0  0  0  0  0  0  0  0  0  0
  139.3840  137.7390  156.3120 C   0  0  0  0  0  1  0  0  0  0  0  0
  139.5390  138.7120  155.2870 O   0  0  0  0  0  0  0  0  0  0  0  0
  138.0160  138.1290  153.1440 O   0  0  0  0  0  0  0  0  0  0  0  0
  137.6120  138.9730  153.0910 H   0  0  0  0  0  0  0  0  0  0  0  0
  145.3530  140.9850  152.1160 C   0  0  0  0  0  2  0  0  0  0  0  0
  146.8780  140.9530  152.0240 C   0  0  0  0  0  2  0  0  0  0  0  0
  147.5290  142.1560  152.7100 C   0  0  0  0  0  2  0  0  0  0  0  0
  147.8960  141.8100  154.1530 C   0  0  0  0  0  2  0  0  0  0  0  0
  148.3790  140.3690  154.2740 C   0  0  0  0  0  2  0  0  0  0  0  0
  147.6290  139.6780  155.3170 N   0  0  0  0  0  4  0  0  0  0  0  0
  147.9260  138.7030  155.3610 H   0  0  0  0  0  0  0  0  0  0  0  0
  146.6330  139.7220  155.1050 H   0  0  0  0  0  0  0  0  0  0  0  0
  147.8050  140.1270  156.2170 H   0  0  0  0  0  0  0  0  0  0  0  0
  1  5  1  0  0  0  0
  1  2  1  0  0  0  0
  2  3  2  0  0  0  0
  4  1  1  0  0  0  0
  5  8  1  0  0  0  0
  6 13  1  0  0  0  0
  7  6  1  0  0  0  0
  8  7  2  0  0  0  0
  9 10  2  0  0  0  0
  9  8  1  0  0  0  0
 10 11  1  0  0  0  0
 11 14  1  0  0  0  0
 11  6  2  0  0  0  0
 13 12  1  0  0  0  0
 15 14  1  0  0  0  0
 16  2  1  0  0  0  0
 17 16  1  0  0  0  0
 17 18  1  0  0  0  0
 18 19  1  0  0  0  0
 19 20  1  0  0  0  0
 20 21  1  0  0  0  0
 21 22  1  0  0  0  0
 21 24  1  0  0  0  0
 23 21  1  0  0  0  0
M  END
>  <MODEL>
2

>  <REMARK>
 VINA RESULT:    -5.788      3.751      6.252
 INTER + INTRA:          -9.584
 INTER:                  -8.665
 INTRA:                  -0.919
 UNBOUND:                -0.750
  Name = CHEMBL1183595
  11 active torsions:
  status: ('A' for Active; 'I' for Inactive)
    1  A    between atoms: C_1  and  O_2
    2  A    between atoms: O_2  and  C_3
    3  A    between atoms: C_5  and  C_6
    4  A    between atoms: C_6  and  N_7
    5  A    between atoms: C_8  and  C_10
    6  A    between atoms: C_10  and  C_11
    7  A    between atoms: C_11  and  C_12
    8  A    between atoms: C_12  and  C_13
    9  A    between atoms: C_13  and  C_14
   10  A    between atoms: C_14  and  N_15
   11  A    between atoms: C_18  and  O_19
                            x       y       z     vdW  Elec       q    Type
                         _______ _______ _______ _____ _____    ______ ____

>  <TORSDO>
F 10

>  <SCORE>
-5.788

>  <RMSD_LB>
3.751

>  <RMSD_UB>
6.252

$$$$
CHEMBL1183595
 OpenBabel10172500563D

 24 24  0  0  0  0  0  0  0  0999 V2000
  144.3380  140.8000  151.7030 N   0  0  0  0  0  0  0  0  0  0  0  0
  143.3280  139.9970  151.2370 C   0  0  0  0  0  0  0  0  0  0  0  0
  143.0060  139.9230  150.0480 O   0  0  0  0  0  0  0  0  0  0  0  0
  144.5560  140.7860  152.6640 H   0  0  0  0  0  0  0  0  0  0  0  0
  145.0900  141.6650  150.8240 C   0  0  0  0  0  2  0  0  0  0  0  0
  148.2410  141.7800  153.0170 C   0  0  0  0  0  0  0  0  0  0  0  0
  146.9190  141.5840  152.5940 C   0  0  0  0  0  3  0  0  0  0  0  0
  146.5090  141.9020  151.2860 C   0  0  0  0  0  0  0  0  0  0  0  0
  147.4590  142.4300  150.4010 C   0  0  0  0  0  3  0  0  0  0  0  0
  148.7800  142.6330  150.8080 C   0  0  0  0  0  3  0  0  0  0  0  0
  149.1640  142.3130  152.1100 C   0  0  0  0  0  0  0  0  0  0  0  0
  148.6160  140.1290  154.6870 C   0  0  0  0  0  1  0  0  0  0  0  0
  148.7060  141.4860  154.2740 O   0  0  0  0  0  0  0  0  0  0  0  0
  150.4580  142.5220  152.5100 O   0  0  0  0  0  0  0  0  0  0  0  0
  150.7980  142.0670  153.2550 H   0  0  0  0  0  0  0  0  0  0  0  0
  142.6120  139.2180  152.3160 C   0  0  0  0  0  2  0  0  0  0  0  0
  142.9380  137.7270  152.2520 C   0  0  0  0  0  2  0  0  0  0  0  0
  143.7590  137.2560  153.4550 C   0  0  0  0  0  2  0  0  0  0  0  0
  145.2180  137.6870  153.3030 C   0  0  0  0  0  2  0  0  0  0  0  0
  145.8010  138.1520  154.6330 C   0  0  0  0  0  2  0  0  0  0  0  0
  145.0050  139.2500  155.1700 N   0  0  0  0  0  4  0  0  0  0  0  0
  145.6230  139.9450  155.5900 H   0  0  0  0  0  0  0  0  0  0  0  0
  144.3650  138.8920  155.8770 H   0  0  0  0  0  0  0  0  0  0  0  0
  144.4710  139.6830  154.4150 H   0  0  0  0  0  0  0  0  0  0  0  0
  1  4  1  0  0  0  0
  2  1  1  0  0  0  0
  2 16  1  0  0  0  0
  3  2  2  0  0  0  0
  5  8  1  0  0  0  0
  5  1  1  0  0  0  0
  6 13  1  0  0  0  0
  7  6  1  0  0  0  0
  8  7  2  0  0  0  0
  9 10  2  0  0  0  0
  9  8  1  0  0  0  0
 10 11  1  0  0  0  0
 11 14  1  0  0  0  0
 11  6  2  0  0  0  0
 13 12  1  0  0  0  0
 14 15  1  0  0  0  0
 17 16  1  0  0  0  0
 17 18  1  0  0  0  0
 19 18  1  0  0  0  0
 19 20  1  0  0  0  0
 20 21  1  0  0  0  0
 21 22  1  0  0  0  0
 21 23  1  0  0  0  0
 24 21  1  0  0  0  0
M  END
>  <MODEL>
3

>  <REMARK>
 VINA RESULT:    -5.654      1.754      4.420
 INTER + INTRA:          -9.378
 INTER:                  -8.674
 INTRA:                  -0.704
 UNBOUND:                -0.750
  Name = CHEMBL1183595
  11 active torsions:
  status: ('A' for Active; 'I' for Inactive)
    1  A    between atoms: C_1  and  O_2
    2  A    between atoms: O_2  and  C_3
    3  A    between atoms: C_5  and  C_6
    4  A    between atoms: C_6  and  N_7
    5  A    between atoms: C_8  and  C_10
    6  A    between atoms: C_10  and  C_11
    7  A    between atoms: C_11  and  C_12
    8  A    between atoms: C_12  and  C_13
    9  A    between atoms: C_13  and  C_14
   10  A    between atoms: C_14  and  N_15
   11  A    between atoms: C_18  and  O_19
                            x       y       z     vdW  Elec       q    Type
                         _______ _______ _______ _____ _____    ______ ____

>  <TORSDO>
F 10

>  <SCORE>
-5.654

>  <RMSD_LB>
1.754

>  <RMSD_UB>
4.420

$$$$
CHEMBL1183595
 OpenBabel10172500563D

 24 24  0  0  0  0  0  0  0  0999 V2000
  143.6400  140.2030  151.4740 N   0  0  0  0  0  0  0  0  0  0  0  0
  142.6530  139.9250  150.5630 C   0  0  0  0  0  0  0  0  0  0  0  0
  142.6620  140.3330  149.3980 O   0  0  0  0  0  0  0  0  0  0  0  0
  143.5780  139.8200  152.3790 H   0  0  0  0  0  0  0  0  0  0  0  0
  144.7670  141.0440  151.1430 C   0  0  0  0  0  2  0  0  0  0  0  0
  146.8480  140.1170  154.2340 C   0  0  0  0  0  0  0  0  0  0  0  0
  145.8400  140.1240  153.2600 C   0  0  0  0  0  3  0  0  0  0  0  0
  145.8400  141.0550  152.2060 C   0  0  0  0  0  0  0  0  0  0  0  0
  146.8800  141.9930  152.1460 C   0  0  0  0  0  3  0  0  0  0  0  0
  147.8920  142.0000  153.1100 C   0  0  0  0  0  3  0  0  0  0  0  0
  147.8710  141.0690  154.1480 C   0  0  0  0  0  0  0  0  0  0  0  0
  147.2020  137.8810  154.9610 C   0  0  0  0  0  1  0  0  0  0  0  0
  146.9100  139.2350  155.2820 O   0  0  0  0  0  0  0  0  0  0  0  0
  148.8590  141.0850  155.0990 O   0  0  0  0  0  0  0  0  0  0  0  0
  149.4580  140.3670  155.1630 H   0  0  0  0  0  0  0  0  0  0  0  0
  141.5230  139.0870  151.1150 C   0  0  0  0  0  2  0  0  0  0  0  0
  141.9690  138.2460  152.3100 C   0  0  0  0  0  2  0  0  0  0  0  0
  140.8460  138.0320  153.3270 C   0  0  0  0  0  2  0  0  0  0  0  0
  141.1370  138.8080  154.6110 C   0  0  0  0  0  2  0  0  0  0  0  0
  142.6130  139.1810  154.7120 C   0  0  0  0  0  2  0  0  0  0  0  0
  142.8080  140.1540  155.7820 N   0  0  0  0  0  4  0  0  0  0  0  0
  143.4360  139.7640  156.4860 H   0  0  0  0  0  0  0  0  0  0  0  0
  141.9100  140.3720  156.2110 H   0  0  0  0  0  0  0  0  0  0  0  0
  143.2170  141.0060  155.3960 H   0  0  0  0  0  0  0  0  0  0  0  0
  1  4  1  0  0  0  0
  2 16  1  0  0  0  0
  2  1  1  0  0  0  0
  3  2  2  0  0  0  0
  5  1  1  0  0  0  0
  5  8  1  0  0  0  0
  6 13  1  0  0  0  0
  7  6  2  0  0  0  0
  8  7  1  0  0  0  0
  9  8  2  0  0  0  0
  9 10  1  0  0  0  0
 10 11  2  0  0  0  0
 11  6  1  0  0  0  0
 11 14  1  0  0  0  0
 12 13  1  0  0  0  0
 14 15  1  0  0  0  0
 16 17  1  0  0  0  0
 17 18  1  0  0  0  0
 18 19  1  0  0  0  0
 19 20  1  0  0  0  0
 20 21  1  0  0  0  0
 21 23  1  0  0  0  0
 21 22  1  0  0  0  0
 24 21  1  0  0  0  0
M  END
>  <MODEL>
4

>  <REMARK>
 VINA RESULT:    -5.530      2.324      5.179
 INTER + INTRA:          -9.189
 INTER:                  -8.465
 INTRA:                  -0.724
 UNBOUND:                -0.750
  Name = CHEMBL1183595
  11 active torsions:
  status: ('A' for Active; 'I' for Inactive)
    1  A    between atoms: C_1  and  O_2
    2  A    between atoms: O_2  and  C_3
    3  A    between atoms: C_5  and  C_6
    4  A    between atoms: C_6  and  N_7
    5  A    between atoms: C_8  and  C_10
    6  A    between atoms: C_10  and  C_11
    7  A    between atoms: C_11  and  C_12
    8  A    between atoms: C_12  and  C_13
    9  A    between atoms: C_13  and  C_14
   10  A    between atoms: C_14  and  N_15
   11  A    between atoms: C_18  and  O_19
                            x       y       z     vdW  Elec       q    Type
                         _______ _______ _______ _____ _____    ______ ____

>  <TORSDO>
F 10

>  <SCORE>
-5.530

>  <RMSD_LB>
2.324

>  <RMSD_UB>
5.179

$$$$
CHEMBL1183595
 OpenBabel10172500563D

 24 24  0  0  0  0  0  0  0  0999 V2000
  134.4940  135.8740  152.0140 N   0  0  0  0  0  0  0  0  0  0  0  0
  134.4860  135.2420  153.2310 C   0  0  0  0  0  0  0  0  0  0  0  0
  133.4670  134.7880  153.7600 O   0  0  0  0  0  0  0  0  0  0  0  0
  135.3510  136.1850  151.6420 H   0  0  0  0  0  0  0  0  0  0  0  0
  133.2800  136.0950  151.2620 C   0  0  0  0  0  2  0  0  0  0  0  0
  133.3690  135.2750  147.5120 C   0  0  0  0  0  0  0  0  0  0  0  0
  133.3870  135.9840  148.7210 C   0  0  0  0  0  3  0  0  0  0  0  0
  133.2340  135.3320  149.9590 C   0  0  0  0  0  0  0  0  0  0  0  0
  133.0560  133.9420  149.9630 C   0  0  0  0  0  3  0  0  0  0  0  0
  133.0340  133.2220  148.7650 C   0  0  0  0  0  3  0  0  0  0  0  0
  133.1860  133.8880  147.5490 C   0  0  0  0  0  0  0  0  0  0  0  0
  133.2050  137.2300  146.1670 C   0  0  0  0  0  1  0  0  0  0  0  0
  133.5190  135.8470  146.2740 O   0  0  0  0  0  0  0  0  0  0  0  0
  133.1540  133.1810  146.3750 O   0  0  0  0  0  0  0  0  0  0  0  0
  132.3570  133.1210  145.8860 H   0  0  0  0  0  0  0  0  0  0  0  0
  135.8410  135.1650  153.8960 C   0  0  0  0  0  2  0  0  0  0  0  0
  135.9130  136.0440  155.1440 C   0  0  0  0  0  2  0  0  0  0  0  0
  137.3430  136.4780  155.4710 C   0  0  0  0  0  2  0  0  0  0  0  0
  137.7690  135.9230  156.8300 C   0  0  0  0  0  2  0  0  0  0  0  0
  136.6440  136.0380  157.8540 C   0  0  0  0  0  2  0  0  0  0  0  0
  136.6660  137.3590  158.4720 N   0  0  0  0  0  4  0  0  0  0  0  0
  137.6270  137.6960  158.5200 H   0  0  0  0  0  0  0  0  0  0  0  0
  136.2780  137.3010  159.4130 H   0  0  0  0  0  0  0  0  0  0  0  0
  136.1070  138.0050  157.9130 H   0  0  0  0  0  0  0  0  0  0  0  0
  1  2  1  0  0  0  0
  2  3  2  0  0  0  0
  2 16  1  0  0  0  0
  4  1  1  0  0  0  0
  5  1  1  0  0  0  0
  6 11  2  0  0  0  0
  6  7  1  0  0  0  0
  7  8  2  0  0  0  0
  8  9  1  0  0  0  0
  8  5  1  0  0  0  0
 10  9  2  0  0  0  0
 11 10  1  0  0  0  0
 12 13  1  0  0  0  0
 13  6  1  0  0  0  0
 14 11  1  0  0  0  0
 15 14  1  0  0  0  0
 16 17  1  0  0  0  0
 17 18  1  0  0  0  0
 18 19  1  0  0  0  0
 19 20  1  0  0  0  0
 20 21  1  0  0  0  0
 21 22  1  0  0  0  0
 21 23  1  0  0  0  0
 24 21  1  0  0  0  0
M  END
>  <MODEL>
5

>  <REMARK>
 VINA RESULT:    -5.517     11.136     13.409
 INTER + INTRA:          -9.170
 INTER:                  -8.746
 INTRA:                  -0.423
 UNBOUND:                -0.750
  Name = CHEMBL1183595
  11 active torsions:
  status: ('A' for Active; 'I' for Inactive)
    1  A    between atoms: C_1  and  O_2
    2  A    between atoms: O_2  and  C_3
    3  A    between atoms: C_5  and  C_6
    4  A    between atoms: C_6  and  N_7
    5  A    between atoms: C_8  and  C_10
    6  A    between atoms: C_10  and  C_11
    7  A    between atoms: C_11  and  C_12
    8  A    between atoms: C_12  and  C_13
    9  A    between atoms: C_13  and  C_14
   10  A    between atoms: C_14  and  N_15
   11  A    between atoms: C_18  and  O_19
                            x       y       z     vdW  Elec       q    Type
                         _______ _______ _______ _____ _____    ______ ____

>  <TORSDO>
F 10

>  <SCORE>
-5.517

>  <RMSD_LB>
11.136

>  <RMSD_UB>
13.409

$$$$
CHEMBL1183595
 OpenBabel10172500563D

 24 24  0  0  0  0  0  0  0  0999 V2000
  144.7190  140.9260  149.7810 N   0  0  0  0  0  0  0  0  0  0  0  0
  145.9700  140.8360  149.2250 C   0  0  0  0  0  0  0  0  0  0  0  0
  146.4730  139.7760  148.8400 O   0  0  0  0  0  0  0  0  0  0  0  0
  144.3730  141.8110  150.0390 H   0  0  0  0  0  0  0  0  0  0  0  0
  143.8950  139.7590  149.9960 C   0  0  0  0  0  2  0  0  0  0  0  0
  144.2090  139.5280  153.8160 C   0  0  0  0  0  0  0  0  0  0  0  0
  144.5190  139.7290  152.4640 C   0  0  0  0  0  3  0  0  0  0  0  0
  143.5660  139.5170  151.4510 C   0  0  0  0  0  0  0  0  0  0  0  0
  142.2830  139.0940  151.8210 C   0  0  0  0  0  3  0  0  0  0  0  0
  141.9580  138.8880  153.1650 C   0  0  0  0  0  3  0  0  0  0  0  0
  142.9190  139.1010  154.1530 C   0  0  0  0  0  0  0  0  0  0  0  0
  146.2350  138.8820  154.8800 C   0  0  0  0  0  1  0  0  0  0  0  0
  145.0870  139.7210  154.8520 O   0  0  0  0  0  0  0  0  0  0  0  0
  142.6010  138.8890  155.4700 O   0  0  0  0  0  0  0  0  0  0  0  0
  142.9580  139.4470  156.1330 H   0  0  0  0  0  0  0  0  0  0  0  0
  146.7050  142.1540  149.1440 C   0  0  0  0  0  2  0  0  0  0  0  0
  147.2080  142.6100  150.5120 C   0  0  0  0  0  2  0  0  0  0  0  0
  147.7360  141.4490  151.3580 C   0  0  0  0  0  2  0  0  0  0  0  0
  147.6050  141.7730  152.8460 C   0  0  0  0  0  2  0  0  0  0  0  0
  148.9700  141.8140  153.5270 C   0  0  0  0  0  2  0  0  0  0  0  0
  148.8020  141.8150  154.9760 N   0  0  0  0  0  4  0  0  0  0  0  0
  148.7340  140.8540  155.3120 H   0  0  0  0  0  0  0  0  0  0  0  0
  147.9510  142.3220  155.2200 H   0  0  0  0  0  0  0  0  0  0  0  0
  149.6060  142.2710  155.4110 H   0  0  0  0  0  0  0  0  0  0  0  0
  1  5  1  0  0  0  0
  1  4  1  0  0  0  0
  2  1  1  0  0  0  0
  3  2  2  0  0  0  0
  5  8  1  0  0  0  0
  6 11  1  0  0  0  0
  6 13  1  0  0  0  0
  7  6  2  0  0  0  0
  8  9  2  0  0  0  0
  8  7  1  0  0  0  0
  9 10  1  0  0  0  0
 10 11  2  0  0  0  0
 11 14  1  0  0  0  0
 13 12  1  0  0  0  0
 14 15  1  0  0  0  0
 16  2  1  0  0  0  0
 16 17  1  0  0  0  0
 17 18  1  0  0  0  0
 18 19  1  0  0  0  0
 19 20  1  0  0  0  0
 20 21  1  0  0  0  0
 21 23  1  0  0  0  0
 21 22  1  0  0  0  0
 21 24  1  0  0  0  0
M  END
>  <MODEL>
6

>  <REMARK>
 VINA RESULT:    -5.481      2.560      5.761
 INTER + INTRA:          -9.115
 INTER:                  -8.293
 INTRA:                  -0.822
 UNBOUND:                -0.750
  Name = CHEMBL1183595
  11 active torsions:
  status: ('A' for Active; 'I' for Inactive)
    1  A    between atoms: C_1  and  O_2
    2  A    between atoms: O_2  and  C_3
    3  A    between atoms: C_5  and  C_6
    4  A    between atoms: C_6  and  N_7
    5  A    between atoms: C_8  and  C_10
    6  A    between atoms: C_10  and  C_11
    7  A    between atoms: C_11  and  C_12
    8  A    between atoms: C_12  and  C_13
    9  A    between atoms: C_13  and  C_14
   10  A    between atoms: C_14  and  N_15
   11  A    between atoms: C_18  and  O_19
                            x       y       z     vdW  Elec       q    Type
                         _______ _______ _______ _____ _____    ______ ____

>  <TORSDO>
F 10

>  <SCORE>
-5.481

>  <RMSD_LB>
2.560

>  <RMSD_UB>
5.761

$$$$
CHEMBL1183595
 OpenBabel10172500563D

 24 24  0  0  0  0  0  0  0  0999 V2000
  144.2200  138.7750  152.1870 N   0  0  0  0  0  0  0  0  0  0  0  0
  144.7550  139.8120  152.9080 C   0  0  0  0  0  0  0  0  0  0  0  0
  144.7650  139.8550  154.1420 O   0  0  0  0  0  0  0  0  0  0  0  0
  144.2730  138.7980  151.2040 H   0  0  0  0  0  0  0  0  0  0  0  0
  143.5800  137.6510  152.8310 C   0  0  0  0  0  2  0  0  0  0  0  0
  139.8140  137.7310  152.0870 C   0  0  0  0  0  0  0  0  0  0  0  0
  141.2000  137.5950  151.9290 C   0  0  0  0  0  3  0  0  0  0  0  0
  142.0880  137.8240  152.9960 C   0  0  0  0  0  0  0  0  0  0  0  0
  141.5560  138.1970  154.2380 C   0  0  0  0  0  3  0  0  0  0  0  0
  140.1760  138.3380  154.4100 C   0  0  0  0  0  3  0  0  0  0  0  0
  139.3140  138.1090  153.3380 C   0  0  0  0  0  0  0  0  0  0  0  0
  138.7500  138.5500  150.1240 C   0  0  0  0  0  1  0  0  0  0  0  0
  138.8940  137.5180  151.0910 O   0  0  0  0  0  0  0  0  0  0  0  0
  137.9620  138.2570  153.5070 O   0  0  0  0  0  0  0  0  0  0  0  0
  137.4190  137.5030  153.6270 H   0  0  0  0  0  0  0  0  0  0  0  0
  145.3190  140.9280  152.0580 C   0  0  0  0  0  2  0  0  0  0  0  0
  146.8450  140.8910  152.0100 C   0  0  0  0  0  2  0  0  0  0  0  0
  147.4820  142.1010  152.6970 C   0  0  0  0  0  2  0  0  0  0  0  0
  147.8220  141.7670  154.1490 C   0  0  0  0  0  2  0  0  0  0  0  0
  148.3350  140.3370  154.2860 C   0  0  0  0  0  2  0  0  0  0  0  0
  147.5710  139.6300  155.3080 N   0  0  0  0  0  4  0  0  0  0  0  0
  147.8880  138.6620  155.3610 H   0  0  0  0  0  0  0  0  0  0  0  0
  146.5800  139.6500  155.0660 H   0  0  0  0  0  0  0  0  0  0  0  0
  147.7090  140.0830  156.2120 H   0  0  0  0  0  0  0  0  0  0  0  0
  1  5  1  0  0  0  0
  1  2  1  0  0  0  0
  2  3  2  0  0  0  0
  4  1  1  0  0  0  0
  5  8  1  0  0  0  0
  6 11  1  0  0  0  0
  7  6  2  0  0  0  0
  7  8  1  0  0  0  0
  8  9  2  0  0  0  0
  9 10  1  0  0  0  0
 11 14  1  0  0  0  0
 11 10  2  0  0  0  0
 12 13  1  0  0  0  0
 13  6  1  0  0  0  0
 14 15  1  0  0  0  0
 16  2  1  0  0  0  0
 17 16  1  0  0  0  0
 17 18  1  0  0  0  0
 18 19  1  0  0  0  0
 19 20  1  0  0  0  0
 20 21  1  0  0  0  0
 21 22  1  0  0  0  0
 21 24  1  0  0  0  0
 23 21  1  0  0  0  0
M  END
>  <MODEL>
7

>  <REMARK>
 VINA RESULT:    -5.475      3.631      6.075
 INTER + INTRA:          -9.106
 INTER:                  -8.181
 INTRA:                  -0.925
 UNBOUND:                -0.750
  Name = CHEMBL1183595
  11 active torsions:
  status: ('A' for Active; 'I' for Inactive)
    1  A    between atoms: C_1  and  O_2
    2  A    between atoms: O_2  and  C_3
    3  A    between atoms: C_5  and  C_6
    4  A    between atoms: C_6  and  N_7
    5  A    between atoms: C_8  and  C_10
    6  A    between atoms: C_10  and  C_11
    7  A    between atoms: C_11  and  C_12
    8  A    between atoms: C_12  and  C_13
    9  A    between atoms: C_13  and  C_14
   10  A    between atoms: C_14  and  N_15
   11  A    between atoms: C_18  and  O_19
                            x       y       z     vdW  Elec       q    Type
                         _______ _______ _______ _____ _____    ______ ____

>  <TORSDO>
F 10

>  <SCORE>
-5.475

>  <RMSD_LB>
3.631

>  <RMSD_UB>
6.075

$$$$
CHEMBL1183595
 OpenBabel10172500563D

 24 24  0  0  0  0  0  0  0  0999 V2000
  138.0910  137.6760  151.9290 N   0  0  0  0  0  0  0  0  0  0  0  0
  139.4320  137.6300  151.6440 C   0  0  0  0  0  0  0  0  0  0  0  0
  139.9020  137.0670  150.6510 O   0  0  0  0  0  0  0  0  0  0  0  0
  137.7880  138.1690  152.7260 H   0  0  0  0  0  0  0  0  0  0  0  0
  137.1120  137.0240  151.0920 C   0  0  0  0  0  2  0  0  0  0  0  0
  134.6160  134.2060  151.8500 C   0  0  0  0  0  0  0  0  0  0  0  0
  135.4030  135.1380  151.1590 C   0  0  0  0  0  3  0  0  0  0  0  0
  136.2460  136.0370  151.8390 C   0  0  0  0  0  0  0  0  0  0  0  0
  136.2850  135.9850  153.2390 C   0  0  0  0  0  3  0  0  0  0  0  0
  135.5040  135.0620  153.9420 C   0  0  0  0  0  3  0  0  0  0  0  0
  134.6740  134.1820  153.2480 C   0  0  0  0  0  0  0  0  0  0  0  0
  132.7850  133.8270  150.3800 C   0  0  0  0  0  1  0  0  0  0  0  0
  133.7790  133.3000  151.2500 O   0  0  0  0  0  0  0  0  0  0  0  0
  133.9030  133.2840  153.9400 O   0  0  0  0  0  0  0  0  0  0  0  0
  133.3490  132.6880  153.4760 H   0  0  0  0  0  0  0  0  0  0  0  0
  140.3050  138.3130  152.6730 C   0  0  0  0  0  2  0  0  0  0  0  0
  141.7210  137.7390  152.6870 C   0  0  0  0  0  2  0  0  0  0  0  0
  142.5080  138.1550  153.9310 C   0  0  0  0  0  2  0  0  0  0  0  0
  143.5210  139.2440  153.5800 C   0  0  0  0  0  2  0  0  0  0  0  0
  144.6210  139.3410  154.6320 C   0  0  0  0  0  2  0  0  0  0  0  0
  144.0490  139.7330  155.9150 N   0  0  0  0  0  4  0  0  0  0  0  0
  143.8140  138.8980  156.4520 H   0  0  0  0  0  0  0  0  0  0  0  0
  143.2070  140.2850  155.7570 H   0  0  0  0  0  0  0  0  0  0  0  0
  144.7290  140.2910  156.4350 H   0  0  0  0  0  0  0  0  0  0  0  0
  1  4  1  0  0  0  0
  2  1  1  0  0  0  0
  2 16  1  0  0  0  0
  3  2  2  0  0  0  0
  5  8  1  0  0  0  0
  5  1  1  0  0  0  0
  6 11  1  0  0  0  0
  7  8  1  0  0  0  0
  7  6  2  0  0  0  0
  8  9  2  0  0  0  0
  9 10  1  0  0  0  0
 11 14  1  0  0  0  0
 11 10  2  0  0  0  0
 12 13  1  0  0  0  0
 13  6  1  0  0  0  0
 15 14  1  0  0  0  0
 16 17  1  0  0  0  0
 17 18  1  0  0  0  0
 19 18  1  0  0  0  0
 19 20  1  0  0  0  0
 20 21  1  0  0  0  0
 21 24  1  0  0  0  0
 21 22  1  0  0  0  0
 23 21  1  0  0  0  0
M  END
>  <MODEL>
8

>  <REMARK>
 VINA RESULT:    -5.461      8.001     10.572
 INTER + INTRA:          -9.084
 INTER:                  -8.702
 INTRA:                  -0.382
 UNBOUND:                -0.750
  Name = CHEMBL1183595
  11 active torsions:
  status: ('A' for Active; 'I' for Inactive)
    1  A    between atoms: C_1  and  O_2
    2  A    between atoms: O_2  and  C_3
    3  A    between atoms: C_5  and  C_6
    4  A    between atoms: C_6  and  N_7
    5  A    between atoms: C_8  and  C_10
    6  A    between atoms: C_10  and  C_11
    7  A    between atoms: C_11  and  C_12
    8  A    between atoms: C_12  and  C_13
    9  A    between atoms: C_13  and  C_14
   10  A    between atoms: C_14  and  N_15
   11  A    between atoms: C_18  and  O_19
                            x       y       z     vdW  Elec       q    Type
                         _______ _______ _______ _____ _____    ______ ____

>  <TORSDO>
F 10

>  <SCORE>
-5.461

>  <RMSD_LB>
8.001

>  <RMSD_UB>
10.572

$$$$
CHEMBL1183595
 OpenBabel10172500563D

 24 24  0  0  0  0  0  0  0  0999 V2000
  144.5300  140.3930  152.3550 N   0  0  0  0  0  0  0  0  0  0  0  0
  144.8010  141.2100  151.2880 C   0  0  0  0  0  0  0  0  0  0  0  0
  144.4110  140.9870  150.1380 O   0  0  0  0  0  0  0  0  0  0  0  0
  144.8520  140.6500  153.2500 H   0  0  0  0  0  0  0  0  0  0  0  0
  143.7850  139.1650  152.2040 C   0  0  0  0  0  2  0  0  0  0  0  0
  144.8660  136.1310  150.1120 C   0  0  0  0  0  0  0  0  0  0  0  0
  144.0960  137.1700  150.6520 C   0  0  0  0  0  3  0  0  0  0  0  0
  144.6080  138.0290  151.6420 C   0  0  0  0  0  0  0  0  0  0  0  0
  145.9210  137.8240  152.0870 C   0  0  0  0  0  3  0  0  0  0  0  0
  146.7010  136.7910  151.5590 C   0  0  0  0  0  3  0  0  0  0  0  0
  146.1730  135.9500  150.5810 C   0  0  0  0  0  0  0  0  0  0  0  0
  144.2830  135.7930  147.8310 C   0  0  0  0  0  1  0  0  0  0  0  0
  144.4300  135.2640  149.1430 O   0  0  0  0  0  0  0  0  0  0  0  0
  146.9360  134.9310  150.0720 O   0  0  0  0  0  0  0  0  0  0  0  0
  147.6140  135.1180  149.4530 H   0  0  0  0  0  0  0  0  0  0  0  0
  145.6500  142.4130  151.6320 C   0  0  0  0  0  2  0  0  0  0  0  0
  147.0940  142.2420  151.1620 C   0  0  0  0  0  2  0  0  0  0  0  0
  147.8680  141.2290  152.0080 C   0  0  0  0  0  2  0  0  0  0  0  0
  148.9910  141.9260  152.7760 C   0  0  0  0  0  2  0  0  0  0  0  0
  148.7930  141.8030  154.2830 C   0  0  0  0  0  2  0  0  0  0  0  0
  147.4860  141.2210  154.5680 N   0  0  0  0  0  4  0  0  0  0  0  0
  147.6080  140.2930  154.9740 H   0  0  0  0  0  0  0  0  0  0  0  0
  146.9510  141.1460  153.7030 H   0  0  0  0  0  0  0  0  0  0  0  0
  146.9840  141.8170  155.2270 H   0  0  0  0  0  0  0  0  0  0  0  0
  1  4  1  0  0  0  0
  2 16  1  0  0  0  0
  2  1  1  0  0  0  0
  3  2  2  0  0  0  0
  5  1  1  0  0  0  0
  6 11  2  0  0  0  0
  6  7  1  0  0  0  0
  7  8  2  0  0  0  0
  8  9  1  0  0  0  0
  8  5  1  0  0  0  0
 10  9  2  0  0  0  0
 11 10  1  0  0  0  0
 12 13  1  0  0  0  0
 13  6  1  0  0  0  0
 14 11  1  0  0  0  0
 15 14  1  0  0  0  0
 17 16  1  0  0  0  0
 17 18  1  0  0  0  0
 18 19  1  0  0  0  0
 19 20  1  0  0  0  0
 20 21  1  0  0  0  0
 21 22  1  0  0  0  0
 21 24  1  0  0  0  0
 23 21  1  0  0  0  0
M  END
>  <MODEL>
9

>  <REMARK>
 VINA RESULT:    -5.435      2.792      5.256
 INTER + INTRA:          -9.045
 INTER:                  -8.295
 INTRA:                  -0.750
 UNBOUND:                -0.750
  Name = CHEMBL1183595
  11 active torsions:
  status: ('A' for Active; 'I' for Inactive)
    1  A    between atoms: C_1  and  O_2
    2  A    between atoms: O_2  and  C_3
    3  A    between atoms: C_5  and  C_6
    4  A    between atoms: C_6  and  N_7
    5  A    between atoms: C_8  and  C_10
    6  A    between atoms: C_10  and  C_11
    7  A    between atoms: C_11  and  C_12
    8  A    between atoms: C_12  and  C_13
    9  A    between atoms: C_13  and  C_14
   10  A    between atoms: C_14  and  N_15
   11  A    between atoms: C_18  and  O_19
                            x       y       z     vdW  Elec       q    Type
                         _______ _______ _______ _____ _____    ______ ____

>  <TORSDO>
F 10

>  <SCORE>
-5.435

>  <RMSD_LB>
2.792

>  <RMSD_UB>
5.256

$$$$
