CHEMBL191184
 OpenBabel10172500323D

 24 24  0  0  0  0  0  0  0  0999 V2000
  148.1630  140.4090  154.4470 C   0  0  0  0  0  0  0  0  0  0  0  0
  148.9600  139.4810  154.3280 O   0  0  0  0  0  0  0  0  0  0  0  0
  146.8780  140.2350  154.9070 N   0  0  0  0  0  0  0  0  0  0  0  0
  146.2860  141.0160  155.0110 H   0  0  0  0  0  0  0  0  0  0  0  0
  148.5260  141.8450  154.1230 C   0  0  0  0  0  2  0  0  0  0  0  0
  149.2760  141.9080  152.7930 C   0  0  0  0  0  2  0  0  0  0  0  0
  148.4310  141.4150  151.6230 C   0  0  0  0  0  2  0  0  0  0  0  0
  147.9810  142.5900  150.7500 C   0  0  0  0  0  2  0  0  0  0  0  0
  146.5470  142.4030  150.2610 C   0  0  0  0  0  2  0  0  0  0  0  0
  145.5610  142.4160  151.4300 C   0  0  0  0  0  2  0  0  0  0  0  0
  144.7910  140.3620  150.2000 C   0  0  0  0  0  1  0  0  0  0  0  0
  144.8100  141.0900  151.5340 C   0  0  0  0  0  2  0  0  0  0  0  0
  146.3870  138.9150  155.2350 C   0  0  0  0  0  2  0  0  0  0  0  0
  145.4040  138.4120  154.2100 C   0  0  0  0  0  0  0  0  0  0  0  0
  145.8400  137.6070  153.1510 C   0  0  0  0  0  3  0  0  0  0  0  0
  144.9280  137.1400  152.2050 C   0  0  0  0  0  0  0  0  0  0  0  0
  145.4970  136.1520  150.9080 Cl  0  0  0  0  0  0  0  0  0  0  0  0
  143.5650  137.4630  152.2990 C   0  0  0  0  0  0  0  0  0  0  0  0
  143.1100  138.2580  153.3560 C   0  0  0  0  0  0  0  0  0  0  0  0
  144.0390  138.7180  154.3070 C   0  0  0  0  0  3  0  0  0  0  0  0
  142.7050  136.9930  151.3410 O   0  0  0  0  0  0  0  0  0  0  0  0
  142.0490  136.3650  151.5680 H   0  0  0  0  0  0  0  0  0  0  0  0
  141.8310  138.6740  153.6170 O   0  0  0  0  0  0  0  0  0  0  0  0
  141.4950  138.9950  154.9610 C   0  0  0  0  0  1  0  0  0  0  0  0
  1  3  1  0  0  0  0
  2  1  2  0  0  0  0
  3  4  1  0  0  0  0
  3 13  1  0  0  0  0
  5  1  1  0  0  0  0
  6  5  1  0  0  0  0
  7  6  1  0  0  0  0
  8  7  1  0  0  0  0
  9  8  1  0  0  0  0
  9 10  1  0  0  0  0
 10 12  1  0  0  0  0
 11 12  1  0  0  0  0
 14 20  1  0  0  0  0
 14 13  1  0  0  0  0
 15 14  2  0  0  0  0
 16 18  2  0  0  0  0
 16 15  1  0  0  0  0
 17 16  1  0  0  0  0
 18 19  1  0  0  0  0
 19 23  1  0  0  0  0
 19 20  2  0  0  0  0
 21 22  1  0  0  0  0
 21 18  1  0  0  0  0
 23 24  1  0  0  0  0
M  END
>  <MODEL>
1

>  <REMARK>
 VINA RESULT:    -6.685      0.000      0.000
 INTER + INTRA:         -11.717
 INTER:                 -10.005
 INTRA:                  -1.712
 UNBOUND:                -0.928
  Name = CHEMBL191184
  13 active torsions:
  status: ('A' for Active; 'I' for Inactive)
    1  A    between atoms: C_1  and  C_2
    2  A    between atoms: C_2  and  C_3
    3  A    between atoms: C_3  and  C_4
    4  A    between atoms: C_4  and  C_5
    5  A    between atoms: C_5  and  C_6
    6  A    between atoms: C_6  and  C_7
    7  A    between atoms: C_7  and  C_8
    8  A    between atoms: C_8  and  C_9
    9  A    between atoms: N_11  and  C_12
   10  A    between atoms: C_12  and  C_13
   11  A    between atoms: C_17  and  O_18
   12  A    between atoms: C_19  and  O_20
   13  A    between atoms: O_20  and  C_21
                            x       y       z     vdW  Elec       q    Type
                         _______ _______ _______ _____ _____    ______ ____

>  <TORSDO>
F 11

>  <SCORE>
-6.685

>  <RMSD_LB>
0.000

>  <RMSD_UB>
0.000

$$$$
CHEMBL191184
 OpenBabel10172500323D

 24 24  0  0  0  0  0  0  0  0999 V2000
  147.3590  140.5240  154.5000 C   0  0  0  0  0  0  0  0  0  0  0  0
  148.0920  139.5990  154.8430 O   0  0  0  0  0  0  0  0  0  0  0  0
  145.9860  140.4290  154.5050 N   0  0  0  0  0  0  0  0  0  0  0  0
  145.4410  141.2090  154.2470 H   0  0  0  0  0  0  0  0  0  0  0  0
  147.8950  141.8720  154.0600 C   0  0  0  0  0  2  0  0  0  0  0  0
  148.7860  141.7060  152.8300 C   0  0  0  0  0  2  0  0  0  0  0  0
  147.9900  141.3470  151.5780 C   0  0  0  0  0  2  0  0  0  0  0  0
  147.7710  142.5850  150.7050 C   0  0  0  0  0  2  0  0  0  0  0  0
  146.3430  142.6430  150.1680 C   0  0  0  0  0  2  0  0  0  0  0  0
  145.4300  141.6830  150.9310 C   0  0  0  0  0  2  0  0  0  0  0  0
  143.3110  140.4560  150.3610 C   0  0  0  0  0  1  0  0  0  0  0  0
  144.7650  140.6830  149.9870 C   0  0  0  0  0  2  0  0  0  0  0  0
  145.3360  139.1940  154.8820 C   0  0  0  0  0  2  0  0  0  0  0  0
  144.7550  138.4790  153.6890 C   0  0  0  0  0  0  0  0  0  0  0  0
  143.3720  138.2840  153.5890 C   0  0  0  0  0  3  0  0  0  0  0  0
  142.8370  137.6250  152.4830 C   0  0  0  0  0  0  0  0  0  0  0  0
  141.1280  137.3970  152.3880 Cl  0  0  0  0  0  0  0  0  0  0  0  0
  143.6700  137.1510  151.4550 C   0  0  0  0  0  0  0  0  0  0  0  0
  145.0520  137.3460  151.5350 C   0  0  0  0  0  0  0  0  0  0  0  0
  145.5790  138.0170  152.6530 C   0  0  0  0  0  3  0  0  0  0  0  0
  143.1020  136.4980  150.3920 O   0  0  0  0  0  0  0  0  0  0  0  0
  143.1260  136.8840  149.5390 H   0  0  0  0  0  0  0  0  0  0  0  0
  146.0170  136.9630  150.6410 O   0  0  0  0  0  0  0  0  0  0  0  0
  146.4870  135.6230  150.7010 C   0  0  0  0  0  1  0  0  0  0  0  0
  1  3  1  0  0  0  0
  1  2  2  0  0  0  0
  3 13  1  0  0  0  0
  4  3  1  0  0  0  0
  5  1  1  0  0  0  0
  6  5  1  0  0  0  0
  7  6  1  0  0  0  0
  8  7  1  0  0  0  0
  9  8  1  0  0  0  0
  9 10  1  0  0  0  0
 12 11  1  0  0  0  0
 12 10  1  0  0  0  0
 14 13  1  0  0  0  0
 15 14  1  0  0  0  0
 16 15  2  0  0  0  0
 17 16  1  0  0  0  0
 18 19  2  0  0  0  0
 18 16  1  0  0  0  0
 19 20  1  0  0  0  0
 20 14  2  0  0  0  0
 21 18  1  0  0  0  0
 22 21  1  0  0  0  0
 23 24  1  0  0  0  0
 23 19  1  0  0  0  0
M  END
>  <MODEL>
2

>  <REMARK>
 VINA RESULT:    -6.328      1.613      2.567
 INTER + INTRA:         -11.140
 INTER:                  -9.481
 INTRA:                  -1.659
 UNBOUND:                -0.928
  Name = CHEMBL191184
  13 active torsions:
  status: ('A' for Active; 'I' for Inactive)
    1  A    between atoms: C_1  and  C_2
    2  A    between atoms: C_2  and  C_3
    3  A    between atoms: C_3  and  C_4
    4  A    between atoms: C_4  and  C_5
    5  A    between atoms: C_5  and  C_6
    6  A    between atoms: C_6  and  C_7
    7  A    between atoms: C_7  and  C_8
    8  A    between atoms: C_8  and  C_9
    9  A    between atoms: N_11  and  C_12
   10  A    between atoms: C_12  and  C_13
   11  A    between atoms: C_17  and  O_18
   12  A    between atoms: C_19  and  O_20
   13  A    between atoms: O_20  and  C_21
                            x       y       z     vdW  Elec       q    Type
                         _______ _______ _______ _____ _____    ______ ____

>  <TORSDO>
F 11

>  <SCORE>
-6.328

>  <RMSD_LB>
1.613

>  <RMSD_UB>
2.567

$$$$
CHEMBL191184
 OpenBabel10172500323D

 24 24  0  0  0  0  0  0  0  0999 V2000
  135.8160  135.5130  157.1300 C   0  0  0  0  0  0  0  0  0  0  0  0
  134.9630  134.9460  157.8080 O   0  0  0  0  0  0  0  0  0  0  0  0
  135.7790  135.5400  155.7550 N   0  0  0  0  0  0  0  0  0  0  0  0
  136.4720  136.0320  155.2560 H   0  0  0  0  0  0  0  0  0  0  0  0
  136.9840  136.2600  157.7430 C   0  0  0  0  0  2  0  0  0  0  0  0
  138.1020  136.4210  156.7140 C   0  0  0  0  0  2  0  0  0  0  0  0
  138.2480  137.8610  156.2320 C   0  0  0  0  0  2  0  0  0  0  0  0
  138.9610  137.9070  154.8780 C   0  0  0  0  0  2  0  0  0  0  0  0
  140.3890  138.4300  155.0170 C   0  0  0  0  0  2  0  0  0  0  0  0
  141.2230  138.0840  153.7830 C   0  0  0  0  0  2  0  0  0  0  0  0
  141.1390  137.3290  151.3870 C   0  0  0  0  0  1  0  0  0  0  0  0
  140.3360  137.8660  152.5590 C   0  0  0  0  0  2  0  0  0  0  0  0
  134.7310  134.8510  155.0330 C   0  0  0  0  0  2  0  0  0  0  0  0
  134.7260  135.2140  153.5710 C   0  0  0  0  0  0  0  0  0  0  0  0
  135.8280  135.8630  153.0010 C   0  0  0  0  0  3  0  0  0  0  0  0
  135.8220  136.1960  151.6470 C   0  0  0  0  0  0  0  0  0  0  0  0
  137.1960  136.9980  150.9750 Cl  0  0  0  0  0  0  0  0  0  0  0  0
  134.7190  135.8850  150.8360 C   0  0  0  0  0  0  0  0  0  0  0  0
  133.6140  135.2290  151.3850 C   0  0  0  0  0  0  0  0  0  0  0  0
  133.6350  134.8940  152.7510 C   0  0  0  0  0  3  0  0  0  0  0  0
  134.7500  136.2410  149.5120 O   0  0  0  0  0  0  0  0  0  0  0  0
  134.3160  135.7120  148.8740 H   0  0  0  0  0  0  0  0  0  0  0  0
  132.4570  134.8430  150.7610 O   0  0  0  0  0  0  0  0  0  0  0  0
  132.4730  133.6350  150.0120 C   0  0  0  0  0  1  0  0  0  0  0  0
  1  5  1  0  0  0  0
  1  2  2  0  0  0  0
  3  1  1  0  0  0  0
  4  3  1  0  0  0  0
  6  5  1  0  0  0  0
  7  6  1  0  0  0  0
  8  9  1  0  0  0  0
  8  7  1  0  0  0  0
 10  9  1  0  0  0  0
 11 12  1  0  0  0  0
 12 10  1  0  0  0  0
 13  3  1  0  0  0  0
 14 13  1  0  0  0  0
 15 14  1  0  0  0  0
 16 15  2  0  0  0  0
 17 16  1  0  0  0  0
 18 19  2  0  0  0  0
 18 16  1  0  0  0  0
 19 20  1  0  0  0  0
 20 14  2  0  0  0  0
 21 18  1  0  0  0  0
 22 21  1  0  0  0  0
 23 19  1  0  0  0  0
 24 23  1  0  0  0  0
M  END
>  <MODEL>
3

>  <REMARK>
 VINA RESULT:    -5.951      7.443     10.653
 INTER + INTRA:         -10.532
 INTER:                  -9.490
 INTRA:                  -1.042
 UNBOUND:                -0.928
  Name = CHEMBL191184
  13 active torsions:
  status: ('A' for Active; 'I' for Inactive)
    1  A    between atoms: C_1  and  C_2
    2  A    between atoms: C_2  and  C_3
    3  A    between atoms: C_3  and  C_4
    4  A    between atoms: C_4  and  C_5
    5  A    between atoms: C_5  and  C_6
    6  A    between atoms: C_6  and  C_7
    7  A    between atoms: C_7  and  C_8
    8  A    between atoms: C_8  and  C_9
    9  A    between atoms: N_11  and  C_12
   10  A    between atoms: C_12  and  C_13
   11  A    between atoms: C_17  and  O_18
   12  A    between atoms: C_19  and  O_20
   13  A    between atoms: O_20  and  C_21
                            x       y       z     vdW  Elec       q    Type
                         _______ _______ _______ _____ _____    ______ ____

>  <TORSDO>
F 11

>  <SCORE>
-5.951

>  <RMSD_LB>
7.443

>  <RMSD_UB>
10.653

$$$$
CHEMBL191184
 OpenBabel10172500323D

 24 24  0  0  0  0  0  0  0  0999 V2000
  135.7860  132.6230  144.7770 C   0  0  0  0  0  0  0  0  0  0  0  0
  135.0590  131.6540  144.5730 O   0  0  0  0  0  0  0  0  0  0  0  0
  135.8230  133.2890  145.9800 N   0  0  0  0  0  0  0  0  0  0  0  0
  136.4440  134.0440  146.1030 H   0  0  0  0  0  0  0  0  0  0  0  0
  136.7350  133.1670  143.7270 C   0  0  0  0  0  2  0  0  0  0  0  0
  137.3240  132.0210  142.9070 C   0  0  0  0  0  2  0  0  0  0  0  0
  137.9850  132.5040  141.6200 C   0  0  0  0  0  2  0  0  0  0  0  0
  137.1810  133.6500  140.9980 C   0  0  0  0  0  2  0  0  0  0  0  0
  137.8010  134.1170  139.6840 C   0  0  0  0  0  2  0  0  0  0  0  0
  138.8140  133.0970  139.1610 C   0  0  0  0  0  2  0  0  0  0  0  0
  141.1590  134.0030  139.1810 C   0  0  0  0  0  1  0  0  0  0  0  0
  139.9110  133.7760  138.3440 C   0  0  0  0  0  2  0  0  0  0  0  0
  134.9550  132.8920  147.0670 C   0  0  0  0  0  2  0  0  0  0  0  0
  134.2430  134.0720  147.6750 C   0  0  0  0  0  0  0  0  0  0  0  0
  133.9660  135.2040  146.9000 C   0  0  0  0  0  3  0  0  0  0  0  0
  133.3040  136.2940  147.4640 C   0  0  0  0  0  0  0  0  0  0  0  0
  132.9790  137.6780  146.4830 Cl  0  0  0  0  0  0  0  0  0  0  0  0
  132.9030  136.2740  148.8090 C   0  0  0  0  0  0  0  0  0  0  0  0
  133.1620  135.1480  149.5960 C   0  0  0  0  0  0  0  0  0  0  0  0
  133.8250  134.0530  149.0130 C   0  0  0  0  0  3  0  0  0  0  0  0
  132.2650  137.3720  149.3260 O   0  0  0  0  0  0  0  0  0  0  0  0
  131.5890  137.7950  148.8360 H   0  0  0  0  0  0  0  0  0  0  0  0
  132.8490  134.9410  150.9140 O   0  0  0  0  0  0  0  0  0  0  0  0
  133.9140  134.6820  151.8190 C   0  0  0  0  0  1  0  0  0  0  0  0
  1  3  1  0  0  0  0
  2  1  2  0  0  0  0
  3  4  1  0  0  0  0
  3 13  1  0  0  0  0
  5  1  1  0  0  0  0
  6  5  1  0  0  0  0
  7  6  1  0  0  0  0
  8  7  1  0  0  0  0
  9  8  1  0  0  0  0
 10  9  1  0  0  0  0
 12 10  1  0  0  0  0
 12 11  1  0  0  0  0
 13 14  1  0  0  0  0
 14 20  1  0  0  0  0
 15 16  1  0  0  0  0
 15 14  2  0  0  0  0
 16 18  2  0  0  0  0
 17 16  1  0  0  0  0
 18 21  1  0  0  0  0
 18 19  1  0  0  0  0
 19 23  1  0  0  0  0
 20 19  2  0  0  0  0
 22 21  1  0  0  0  0
 23 24  1  0  0  0  0
M  END
>  <MODEL>
4

>  <REMARK>
 VINA RESULT:    -5.877     13.474     14.713
 INTER + INTRA:         -10.413
 INTER:                  -9.699
 INTRA:                  -0.714
 UNBOUND:                -0.928
  Name = CHEMBL191184
  13 active torsions:
  status: ('A' for Active; 'I' for Inactive)
    1  A    between atoms: C_1  and  C_2
    2  A    between atoms: C_2  and  C_3
    3  A    between atoms: C_3  and  C_4
    4  A    between atoms: C_4  and  C_5
    5  A    between atoms: C_5  and  C_6
    6  A    between atoms: C_6  and  C_7
    7  A    between atoms: C_7  and  C_8
    8  A    between atoms: C_8  and  C_9
    9  A    between atoms: N_11  and  C_12
   10  A    between atoms: C_12  and  C_13
   11  A    between atoms: C_17  and  O_18
   12  A    between atoms: C_19  and  O_20
   13  A    between atoms: O_20  and  C_21
                            x       y       z     vdW  Elec       q    Type
                         _______ _______ _______ _____ _____    ______ ____

>  <TORSDO>
F 11

>  <SCORE>
-5.877

>  <RMSD_LB>
13.474

>  <RMSD_UB>
14.713

$$$$
CHEMBL191184
 OpenBabel10172500323D

 24 24  0  0  0  0  0  0  0  0999 V2000
  145.4380  136.6520  150.6340 C   0  0  0  0  0  0  0  0  0  0  0  0
  145.5170  136.0170  149.5850 O   0  0  0  0  0  0  0  0  0  0  0  0
  144.2360  137.0040  151.2040 N   0  0  0  0  0  0  0  0  0  0  0  0
  144.2260  137.4900  152.0620 H   0  0  0  0  0  0  0  0  0  0  0  0
  146.6590  137.0900  151.4180 C   0  0  0  0  0  2  0  0  0  0  0  0
  146.6100  138.5970  151.6650 C   0  0  0  0  0  2  0  0  0  0  0  0
  146.9790  138.9640  153.1000 C   0  0  0  0  0  2  0  0  0  0  0  0
  148.1590  139.9390  153.1210 C   0  0  0  0  0  2  0  0  0  0  0  0
  147.9730  141.0610  152.1010 C   0  0  0  0  0  2  0  0  0  0  0  0
  147.1230  142.1930  152.6790 C   0  0  0  0  0  2  0  0  0  0  0  0
  145.9370  142.6320  150.5060 C   0  0  0  0  0  1  0  0  0  0  0  0
  145.7700  142.2830  151.9740 C   0  0  0  0  0  2  0  0  0  0  0  0
  142.9880  136.6700  150.5550 C   0  0  0  0  0  2  0  0  0  0  0  0
  141.8030  137.2410  151.2900 C   0  0  0  0  0  0  0  0  0  0  0  0
  140.5290  137.2020  150.7120 C   0  0  0  0  0  3  0  0  0  0  0  0
  139.4340  137.7300  151.3950 C   0  0  0  0  0  0  0  0  0  0  0  0
  137.8750  137.6690  150.6550 Cl  0  0  0  0  0  0  0  0  0  0  0  0
  139.5880  138.3020  152.6680 C   0  0  0  0  0  0  0  0  0  0  0  0
  140.8520  138.3410  153.2650 C   0  0  0  0  0  0  0  0  0  0  0  0
  141.9470  137.8010  152.5670 C   0  0  0  0  0  3  0  0  0  0  0  0
  138.4870  138.8200  153.2990 O   0  0  0  0  0  0  0  0  0  0  0  0
  138.2620  138.5310  154.1610 H   0  0  0  0  0  0  0  0  0  0  0  0
  141.2000  138.8510  154.4880 O   0  0  0  0  0  0  0  0  0  0  0  0
  140.9540  138.0530  155.6380 C   0  0  0  0  0  1  0  0  0  0  0  0
  1  3  1  0  0  0  0
  1  5  1  0  0  0  0
  2  1  2  0  0  0  0
  3  4  1  0  0  0  0
  5  6  1  0  0  0  0
  6  7  1  0  0  0  0
  7  8  1  0  0  0  0
  9 10  1  0  0  0  0
  9  8  1  0  0  0  0
 11 12  1  0  0  0  0
 12 10  1  0  0  0  0
 13  3  1  0  0  0  0
 13 14  1  0  0  0  0
 14 20  1  0  0  0  0
 15 14  2  0  0  0  0
 15 16  1  0  0  0  0
 16 18  2  0  0  0  0
 17 16  1  0  0  0  0
 18 19  1  0  0  0  0
 18 21  1  0  0  0  0
 19 23  1  0  0  0  0
 20 19  2  0  0  0  0
 21 22  1  0  0  0  0
 23 24  1  0  0  0  0
M  END
>  <MODEL>
5

>  <REMARK>
 VINA RESULT:    -5.825      3.050      4.547
 INTER + INTRA:         -10.329
 INTER:                  -9.324
 INTRA:                  -1.005
 UNBOUND:                -0.928
  Name = CHEMBL191184
  13 active torsions:
  status: ('A' for Active; 'I' for Inactive)
    1  A    between atoms: C_1  and  C_2
    2  A    between atoms: C_2  and  C_3
    3  A    between atoms: C_3  and  C_4
    4  A    between atoms: C_4  and  C_5
    5  A    between atoms: C_5  and  C_6
    6  A    between atoms: C_6  and  C_7
    7  A    between atoms: C_7  and  C_8
    8  A    between atoms: C_8  and  C_9
    9  A    between atoms: N_11  and  C_12
   10  A    between atoms: C_12  and  C_13
   11  A    between atoms: C_17  and  O_18
   12  A    between atoms: C_19  and  O_20
   13  A    between atoms: O_20  and  C_21
                            x       y       z     vdW  Elec       q    Type
                         _______ _______ _______ _____ _____    ______ ____

>  <TORSDO>
F 11

>  <SCORE>
-5.825

>  <RMSD_LB>
3.050

>  <RMSD_UB>
4.547

$$$$
CHEMBL191184
 OpenBabel10172500323D

 24 24  0  0  0  0  0  0  0  0999 V2000
  139.0830  136.4780  149.2490 C   0  0  0  0  0  0  0  0  0  0  0  0
  138.8030  135.8340  148.2410 O   0  0  0  0  0  0  0  0  0  0  0  0
  138.1360  137.1260  150.0090 N   0  0  0  0  0  0  0  0  0  0  0  0
  138.4100  137.6060  150.8250 H   0  0  0  0  0  0  0  0  0  0  0  0
  140.5010  136.6030  149.7710 C   0  0  0  0  0  2  0  0  0  0  0  0
  140.5970  137.7630  150.7590 C   0  0  0  0  0  2  0  0  0  0  0  0
  141.3810  137.3950  152.0160 C   0  0  0  0  0  2  0  0  0  0  0  0
  140.8170  138.1280  153.2370 C   0  0  0  0  0  2  0  0  0  0  0  0
  139.2990  137.9880  153.3190 C   0  0  0  0  0  2  0  0  0  0  0  0
  138.7230  138.8870  154.4130 C   0  0  0  0  0  2  0  0  0  0  0  0
  139.1740  137.6440  156.5510 C   0  0  0  0  0  1  0  0  0  0  0  0
  138.1150  138.0600  155.5450 C   0  0  0  0  0  2  0  0  0  0  0  0
  136.7440  137.1100  149.6190 C   0  0  0  0  0  2  0  0  0  0  0  0
  135.8870  136.3920  150.6300 C   0  0  0  0  0  0  0  0  0  0  0  0
  136.3680  136.1620  151.9250 C   0  0  0  0  0  3  0  0  0  0  0  0
  135.5720  135.4990  152.8590 C   0  0  0  0  0  0  0  0  0  0  0  0
  136.1930  135.2280  154.4470 Cl  0  0  0  0  0  0  0  0  0  0  0  0
  134.2830  135.0570  152.5210 C   0  0  0  0  0  0  0  0  0  0  0  0
  133.7830  135.2870  151.2350 C   0  0  0  0  0  0  0  0  0  0  0  0
  134.5930  135.9610  150.3040 C   0  0  0  0  0  3  0  0  0  0  0  0
  133.5400  134.4000  153.4670 O   0  0  0  0  0  0  0  0  0  0  0  0
  133.8600  133.6050  153.8450 H   0  0  0  0  0  0  0  0  0  0  0  0
  132.5620  134.9370  150.7230 O   0  0  0  0  0  0  0  0  0  0  0  0
  132.4430  133.6710  150.0870 C   0  0  0  0  0  1  0  0  0  0  0  0
  1  5  1  0  0  0  0
  1  3  1  0  0  0  0
  2  1  2  0  0  0  0
  3  4  1  0  0  0  0
  5  6  1  0  0  0  0
  6  7  1  0  0  0  0
  7  8  1  0  0  0  0
  8  9  1  0  0  0  0
  9 10  1  0  0  0  0
 10 12  1  0  0  0  0
 12 11  1  0  0  0  0
 13  3  1  0  0  0  0
 13 14  1  0  0  0  0
 14 15  1  0  0  0  0
 15 16  2  0  0  0  0
 16 17  1  0  0  0  0
 18 16  1  0  0  0  0
 18 21  1  0  0  0  0
 19 18  2  0  0  0  0
 20 14  2  0  0  0  0
 20 19  1  0  0  0  0
 21 22  1  0  0  0  0
 23 19  1  0  0  0  0
 24 23  1  0  0  0  0
M  END
>  <MODEL>
6

>  <REMARK>
 VINA RESULT:    -5.801      7.122     10.000
 INTER + INTRA:         -10.290
 INTER:                  -8.966
 INTRA:                  -1.324
 UNBOUND:                -0.928
  Name = CHEMBL191184
  13 active torsions:
  status: ('A' for Active; 'I' for Inactive)
    1  A    between atoms: C_1  and  C_2
    2  A    between atoms: C_2  and  C_3
    3  A    between atoms: C_3  and  C_4
    4  A    between atoms: C_4  and  C_5
    5  A    between atoms: C_5  and  C_6
    6  A    between atoms: C_6  and  C_7
    7  A    between atoms: C_7  and  C_8
    8  A    between atoms: C_8  and  C_9
    9  A    between atoms: N_11  and  C_12
   10  A    between atoms: C_12  and  C_13
   11  A    between atoms: C_17  and  O_18
   12  A    between atoms: C_19  and  O_20
   13  A    between atoms: O_20  and  C_21
                            x       y       z     vdW  Elec       q    Type
                         _______ _______ _______ _____ _____    ______ ____

>  <TORSDO>
F 11

>  <SCORE>
-5.801

>  <RMSD_LB>
7.122

>  <RMSD_UB>
10.000

$$$$
CHEMBL191184
 OpenBabel10172500323D

 24 24  0  0  0  0  0  0  0  0999 V2000
  146.9680  138.3500  152.7720 C   0  0  0  0  0  0  0  0  0  0  0  0
  145.8280  138.6290  153.1360 O   0  0  0  0  0  0  0  0  0  0  0  0
  147.2290  137.5580  151.6770 N   0  0  0  0  0  0  0  0  0  0  0  0
  148.1610  137.3860  151.4090 H   0  0  0  0  0  0  0  0  0  0  0  0
  148.2030  138.8720  153.4790 C   0  0  0  0  0  2  0  0  0  0  0  0
  147.8020  139.8610  154.5720 C   0  0  0  0  0  2  0  0  0  0  0  0
  148.4830  141.2170  154.4080 C   0  0  0  0  0  2  0  0  0  0  0  0
  147.9600  141.9350  153.1610 C   0  0  0  0  0  2  0  0  0  0  0  0
  146.4600  142.2010  153.2580 C   0  0  0  0  0  2  0  0  0  0  0  0
  145.7690  141.9480  151.9170 C   0  0  0  0  0  2  0  0  0  0  0  0
  146.8090  142.6790  149.7480 C   0  0  0  0  0  1  0  0  0  0  0  0
  146.7840  141.6100  150.8270 C   0  0  0  0  0  2  0  0  0  0  0  0
  146.1460  136.9730  150.9180 C   0  0  0  0  0  2  0  0  0  0  0  0
  145.6680  137.8930  149.8240 C   0  0  0  0  0  0  0  0  0  0  0  0
  146.5860  138.4690  148.9370 C   0  0  0  0  0  3  0  0  0  0  0  0
  146.1410  139.3180  147.9240 C   0  0  0  0  0  0  0  0  0  0  0  0
  147.2970  140.0150  146.8470 Cl  0  0  0  0  0  0  0  0  0  0  0  0
  144.7750  139.6050  147.7730 C   0  0  0  0  0  0  0  0  0  0  0  0
  143.8440  139.0300  148.6440 C   0  0  0  0  0  0  0  0  0  0  0  0
  144.3040  138.1720  149.6580 C   0  0  0  0  0  3  0  0  0  0  0  0
  144.3830  140.4540  146.7710 O   0  0  0  0  0  0  0  0  0  0  0  0
  143.4970  140.4430  146.4670 H   0  0  0  0  0  0  0  0  0  0  0  0
  142.4820  139.1860  148.6560 O   0  0  0  0  0  0  0  0  0  0  0  0
  141.8990  139.8730  149.7550 C   0  0  0  0  0  1  0  0  0  0  0  0
  1  2  2  0  0  0  0
  1  5  1  0  0  0  0
  3  1  1  0  0  0  0
  4  3  1  0  0  0  0
  5  6  1  0  0  0  0
  7  6  1  0  0  0  0
  8  9  1  0  0  0  0
  8  7  1  0  0  0  0
 10  9  1  0  0  0  0
 11 12  1  0  0  0  0
 12 10  1  0  0  0  0
 13  3  1  0  0  0  0
 14 13  1  0  0  0  0
 15 14  2  0  0  0  0
 16 15  1  0  0  0  0
 17 16  1  0  0  0  0
 18 16  2  0  0  0  0
 18 19  1  0  0  0  0
 19 23  1  0  0  0  0
 19 20  2  0  0  0  0
 20 14  1  0  0  0  0
 21 18  1  0  0  0  0
 22 21  1  0  0  0  0
 23 24  1  0  0  0  0
M  END
>  <MODEL>
7

>  <REMARK>
 VINA RESULT:    -5.785      2.889      4.135
 INTER + INTRA:         -10.265
 INTER:                  -8.410
 INTRA:                  -1.855
 UNBOUND:                -0.928
  Name = CHEMBL191184
  13 active torsions:
  status: ('A' for Active; 'I' for Inactive)
    1  A    between atoms: C_1  and  C_2
    2  A    between atoms: C_2  and  C_3
    3  A    between atoms: C_3  and  C_4
    4  A    between atoms: C_4  and  C_5
    5  A    between atoms: C_5  and  C_6
    6  A    between atoms: C_6  and  C_7
    7  A    between atoms: C_7  and  C_8
    8  A    between atoms: C_8  and  C_9
    9  A    between atoms: N_11  and  C_12
   10  A    between atoms: C_12  and  C_13
   11  A    between atoms: C_17  and  O_18
   12  A    between atoms: C_19  and  O_20
   13  A    between atoms: O_20  and  C_21
                            x       y       z     vdW  Elec       q    Type
                         _______ _______ _______ _____ _____    ______ ____

>  <TORSDO>
F 11

>  <SCORE>
-5.785

>  <RMSD_LB>
2.889

>  <RMSD_UB>
4.135

$$$$
CHEMBL191184
 OpenBabel10172500323D

 24 24  0  0  0  0  0  0  0  0999 V2000
  143.0290  139.7900  149.0220 C   0  0  0  0  0  0  0  0  0  0  0  0
  143.5040  139.4430  147.9430 O   0  0  0  0  0  0  0  0  0  0  0  0
  143.7600  140.4570  149.9780 N   0  0  0  0  0  0  0  0  0  0  0  0
  143.3240  140.7390  150.8160 H   0  0  0  0  0  0  0  0  0  0  0  0
  141.5820  139.5400  149.3960 C   0  0  0  0  0  2  0  0  0  0  0  0
  141.1390  138.1690  148.8880 C   0  0  0  0  0  2  0  0  0  0  0  0
  141.4610  137.0500  149.8750 C   0  0  0  0  0  2  0  0  0  0  0  0
  141.3790  137.5620  151.3150 C   0  0  0  0  0  2  0  0  0  0  0  0
  142.7050  137.3770  152.0490 C   0  0  0  0  0  2  0  0  0  0  0  0
  143.7470  136.7200  151.1430 C   0  0  0  0  0  2  0  0  0  0  0  0
  146.1570  136.0290  151.3320 C   0  0  0  0  0  1  0  0  0  0  0  0
  145.1610  137.1610  151.5150 C   0  0  0  0  0  2  0  0  0  0  0  0
  145.1610  140.7460  149.7660 C   0  0  0  0  0  2  0  0  0  0  0  0
  145.8950  140.9440  151.0660 C   0  0  0  0  0  0  0  0  0  0  0  0
  147.2010  141.4500  151.0690 C   0  0  0  0  0  3  0  0  0  0  0  0
  147.8770  141.6340  152.2740 C   0  0  0  0  0  0  0  0  0  0  0  0
  149.4880  142.2570  152.2450 Cl  0  0  0  0  0  0  0  0  0  0  0  0
  147.2650  141.3220  153.4980 C   0  0  0  0  0  0  0  0  0  0  0  0
  145.9570  140.8260  153.5150 C   0  0  0  0  0  0  0  0  0  0  0  0
  145.2840  140.6490  152.2930 C   0  0  0  0  0  3  0  0  0  0  0  0
  147.9710  141.5080  154.6580 O   0  0  0  0  0  0  0  0  0  0  0  0
  147.5860  141.9780  155.3710 H   0  0  0  0  0  0  0  0  0  0  0  0
  145.1980  140.4690  154.5980 O   0  0  0  0  0  0  0  0  0  0  0  0
  144.7580  139.1200  154.6900 C   0  0  0  0  0  1  0  0  0  0  0  0
  1  5  1  0  0  0  0
  1  3  1  0  0  0  0
  2  1  2  0  0  0  0
  3  4  1  0  0  0  0
  6  5  1  0  0  0  0
  6  7  1  0  0  0  0
  7  8  1  0  0  0  0
  8  9  1  0  0  0  0
 10 12  1  0  0  0  0
 10  9  1  0  0  0  0
 11 12  1  0  0  0  0
 13  3  1  0  0  0  0
 13 14  1  0  0  0  0
 14 15  2  0  0  0  0
 14 20  1  0  0  0  0
 15 16  1  0  0  0  0
 16 18  2  0  0  0  0
 17 16  1  0  0  0  0
 18 19  1  0  0  0  0
 18 21  1  0  0  0  0
 19 23  1  0  0  0  0
 20 19  2  0  0  0  0
 21 22  1  0  0  0  0
 23 24  1  0  0  0  0
M  END
>  <MODEL>
8

>  <REMARK>
 VINA RESULT:    -5.636      3.007      6.339
 INTER + INTRA:         -10.024
 INTER:                  -8.543
 INTRA:                  -1.481
 UNBOUND:                -0.928
  Name = CHEMBL191184
  13 active torsions:
  status: ('A' for Active; 'I' for Inactive)
    1  A    between atoms: C_1  and  C_2
    2  A    between atoms: C_2  and  C_3
    3  A    between atoms: C_3  and  C_4
    4  A    between atoms: C_4  and  C_5
    5  A    between atoms: C_5  and  C_6
    6  A    between atoms: C_6  and  C_7
    7  A    between atoms: C_7  and  C_8
    8  A    between atoms: C_8  and  C_9
    9  A    between atoms: N_11  and  C_12
   10  A    between atoms: C_12  and  C_13
   11  A    between atoms: C_17  and  O_18
   12  A    between atoms: C_19  and  O_20
   13  A    between atoms: O_20  and  C_21
                            x       y       z     vdW  Elec       q    Type
                         _______ _______ _______ _____ _____    ______ ____

>  <TORSDO>
F 11

>  <SCORE>
-5.636

>  <RMSD_LB>
3.007

>  <RMSD_UB>
6.339

$$$$
CHEMBL191184
 OpenBabel10172500323D

 24 24  0  0  0  0  0  0  0  0999 V2000
  138.0620  137.1150  149.2360 C   0  0  0  0  0  0  0  0  0  0  0  0
  138.4050  137.7930  148.2700 O   0  0  0  0  0  0  0  0  0  0  0  0
  138.8910  136.8710  150.3070 N   0  0  0  0  0  0  0  0  0  0  0  0
  138.5600  136.3440  151.0710 H   0  0  0  0  0  0  0  0  0  0  0  0
  136.6820  136.5010  149.3560 C   0  0  0  0  0  2  0  0  0  0  0  0
  136.7830  135.0910  149.9330 C   0  0  0  0  0  2  0  0  0  0  0  0
  135.4280  134.3930  150.0080 C   0  0  0  0  0  2  0  0  0  0  0  0
  134.8080  134.5670  151.3970 C   0  0  0  0  0  2  0  0  0  0  0  0
  135.8330  134.3150  152.5010 C   0  0  0  0  0  2  0  0  0  0  0  0
  135.9660  135.5320  153.4160 C   0  0  0  0  0  2  0  0  0  0  0  0
  133.9110  135.4340  154.8620 C   0  0  0  0  0  1  0  0  0  0  0  0
  135.4160  135.2370  154.8110 C   0  0  0  0  0  2  0  0  0  0  0  0
  140.2460  137.3780  150.3200 C   0  0  0  0  0  2  0  0  0  0  0  0
  140.7030  137.7180  151.7150 C   0  0  0  0  0  0  0  0  0  0  0  0
  142.0170  137.4450  152.1130 C   0  0  0  0  0  3  0  0  0  0  0  0
  142.4380  137.7630  153.4030 C   0  0  0  0  0  0  0  0  0  0  0  0
  144.0650  137.4130  153.8640 Cl  0  0  0  0  0  0  0  0  0  0  0  0
  141.5590  138.3620  154.3200 C   0  0  0  0  0  0  0  0  0  0  0  0
  140.2460  138.6510  153.9370 C   0  0  0  0  0  0  0  0  0  0  0  0
  139.8350  138.3300  152.6300 C   0  0  0  0  0  3  0  0  0  0  0  0
  142.0120  138.6470  155.5820 O   0  0  0  0  0  0  0  0  0  0  0  0
  142.8290  139.0900  155.6970 H   0  0  0  0  0  0  0  0  0  0  0  0
  139.2510  139.2290  154.6810 O   0  0  0  0  0  0  0  0  0  0  0  0
  138.1160  138.4370  155.0080 C   0  0  0  0  0  1  0  0  0  0  0  0
  1  5  1  0  0  0  0
  1  3  1  0  0  0  0
  2  1  2  0  0  0  0
  3 13  1  0  0  0  0
  3  4  1  0  0  0  0
  5  6  1  0  0  0  0
  6  7  1  0  0  0  0
  7  8  1  0  0  0  0
  8  9  1  0  0  0  0
  9 10  1  0  0  0  0
 10 12  1  0  0  0  0
 12 11  1  0  0  0  0
 13 14  1  0  0  0  0
 14 15  2  0  0  0  0
 14 20  1  0  0  0  0
 15 16  1  0  0  0  0
 16 17  1  0  0  0  0
 16 18  2  0  0  0  0
 18 21  1  0  0  0  0
 19 18  1  0  0  0  0
 19 23  1  0  0  0  0
 20 19  2  0  0  0  0
 21 22  1  0  0  0  0
 23 24  1  0  0  0  0
M  END
>  <MODEL>
9

>  <REMARK>
 VINA RESULT:    -5.615      5.792      9.732
 INTER + INTRA:          -9.990
 INTER:                  -9.061
 INTRA:                  -0.928
 UNBOUND:                -0.928
  Name = CHEMBL191184
  13 active torsions:
  status: ('A' for Active; 'I' for Inactive)
    1  A    between atoms: C_1  and  C_2
    2  A    between atoms: C_2  and  C_3
    3  A    between atoms: C_3  and  C_4
    4  A    between atoms: C_4  and  C_5
    5  A    between atoms: C_5  and  C_6
    6  A    between atoms: C_6  and  C_7
    7  A    between atoms: C_7  and  C_8
    8  A    between atoms: C_8  and  C_9
    9  A    between atoms: N_11  and  C_12
   10  A    between atoms: C_12  and  C_13
   11  A    between atoms: C_17  and  O_18
   12  A    between atoms: C_19  and  O_20
   13  A    between atoms: O_20  and  C_21
                            x       y       z     vdW  Elec       q    Type
                         _______ _______ _______ _____ _____    ______ ____

>  <TORSDO>
F 11

>  <SCORE>
-5.615

>  <RMSD_LB>
5.792

>  <RMSD_UB>
9.732

$$$$
