CHEMBL1302944
 OpenBabel10172500403D

 32 34  0  0  1  0  0  0  0  0999 V2000
  143.4850  139.7700  155.6290 C   0  0  0  0  0  2  0  0  0  0  0  0
  145.2540  141.0280  154.5210 N   0  0  0  0  0  0  0  0  0  0  0  0
  144.8590  139.7840  154.9620 C   0  0  0  0  0  0  0  0  0  0  0  0
  145.5640  138.7770  154.8750 O   0  0  0  0  0  0  0  0  0  0  0  0
  144.6550  141.7940  154.6710 H   0  0  0  0  0  0  0  0  0  0  0  0
  146.5160  141.2520  153.8490 C   0  0  0  0  0  2  0  0  0  0  0  0
  146.3120  140.8950  149.5200 C   0  0  0  0  0  0  0  0  0  0  0  0
  146.0430  142.1170  150.1490 C   0  0  0  0  0  3  0  0  0  0  0  0
  146.1030  142.2380  151.5410 C   0  0  0  0  0  3  0  0  0  0  0  0
  146.4050  141.1370  152.3480 C   0  0  0  0  0  0  0  0  0  0  0  0
  146.6800  139.9180  151.7170 C   0  0  0  0  0  3  0  0  0  0  0  0
  146.6460  139.7880  150.3180 C   0  0  0  0  0  0  0  0  0  0  0  0
  144.9480  140.2020  147.6930 C   0  0  0  0  0  1  0  0  0  0  0  0
  146.1880  140.7130  148.1680 O   0  0  0  0  0  0  0  0  0  0  0  0
  146.9240  138.5130  149.8930 O   0  0  0  0  0  0  0  0  0  0  0  0
  146.6840  137.4630  150.8220 C   0  0  0  0  0  1  0  0  0  0  0  0
  142.3830  139.6460  154.6530 N   0  0  0  0  0  4  0  0  0  0  0  0
  142.7490  139.8650  153.7270 H   0  0  0  0  0  0  0  0  0  0  0  0
  141.6520  140.2930  154.9530 H   0  0  0  0  0  0  0  0  0  0  0  0
  141.7660  138.3080  154.6010 C   0  0  1  0  0  3  0  0  0  0  0  0
  140.3540  138.2200  155.1980 C   0  0  0  0  0  0  0  0  0  0  0  0
  139.2400  138.8040  154.5700 C   0  0  0  0  0  3  0  0  0  0  0  0
  137.9450  138.5430  155.0210 C   0  0  0  0  0  3  0  0  0  0  0  0
  137.7410  137.7040  156.1130 C   0  0  0  0  0  3  0  0  0  0  0  0
  138.8330  137.1590  156.7830 C   0  0  0  0  0  3  0  0  0  0  0  0
  140.1300  137.4160  156.3330 C   0  0  0  0  0  3  0  0  0  0  0  0
  141.8010  137.7810  153.1540 C   0  0  0  0  0  0  0  0  0  0  0  0
  140.6110  137.7050  152.4080 C   0  0  0  0  0  3  0  0  0  0  0  0
  140.6320  137.3320  151.0610 C   0  0  0  0  0  3  0  0  0  0  0  0
  141.8380  137.0240  150.4370 C   0  0  0  0  0  3  0  0  0  0  0  0
  143.0170  137.0290  151.1750 C   0  0  0  0  0  3  0  0  0  0  0  0
  142.9940  137.3800  152.5280 C   0  0  0  0  0  3  0  0  0  0  0  0
  2  5  1  0  0  0  0
  2  3  1  0  0  0  0
  3  1  1  0  0  0  0
  4  3  2  0  0  0  0
  6  2  1  0  0  0  0
  7  8  2  0  0  0  0
  7 12  1  0  0  0  0
  8  9  1  0  0  0  0
  9 10  2  0  0  0  0
 10  6  1  0  0  0  0
 11 10  1  0  0  0  0
 12 11  2  0  0  0  0
 13 14  1  0  0  0  0
 14  7  1  0  0  0  0
 15 12  1  0  0  0  0
 15 16  1  0  0  0  0
 17 19  1  0  0  0  0
 17  1  1  0  0  0  0
 18 17  1  0  0  0  0
 20 17  1  6  0  0  0
 20 21  1  0  0  0  0
 21 26  1  0  0  0  0
 22 23  1  0  0  0  0
 22 21  2  0  0  0  0
 23 24  2  0  0  0  0
 24 25  1  0  0  0  0
 26 25  2  0  0  0  0
 27 20  1  0  0  0  0
 28 27  2  0  0  0  0
 29 28  1  0  0  0  0
 30 29  2  0  0  0  0
 30 31  1  0  0  0  0
 31 32  2  0  0  0  0
 32 27  1  0  0  0  0
M  END
>  <MODEL>
1

>  <REMARK>
 VINA RESULT:    -8.237      0.000      0.000
 INTER + INTRA:         -13.510
 INTER:                 -12.595
 INTRA:                  -0.916
 UNBOUND:                -0.939
  Name = CHEMBL1302944
  11 active torsions:
  status: ('A' for Active; 'I' for Inactive)
    1  A    between atoms: C_1  and  O_2
    2  A    between atoms: O_2  and  C_3
    3  A    between atoms: C_6  and  C_7
    4  A    between atoms: C_7  and  N_8
    5  A    between atoms: C_9  and  C_11
    6  A    between atoms: C_11  and  N_12
    7  A    between atoms: N_12  and  C_13
    8  A    between atoms: C_13  and  C_14
    9  A    between atoms: C_13  and  C_20
   10  A    between atoms: C_27  and  O_28
   11  A    between atoms: O_28  and  C_29
                            x       y       z     vdW  Elec       q    Type
                         _______ _______ _______ _____ _____    ______ ____

>  <TORSDO>
F 9

>  <SCORE>
-8.237

>  <RMSD_LB>
0.000

>  <RMSD_UB>
0.000

$$$$
CHEMBL1302944
 OpenBabel10172500403D

 32 34  0  0  1  0  0  0  0  0999 V2000
  136.3570  136.2170  152.3720 C   0  0  0  0  0  2  0  0  0  0  0  0
  134.7110  135.6460  150.6690 N   0  0  0  0  0  0  0  0  0  0  0  0
  134.8920  136.1000  151.9560 C   0  0  0  0  0  0  0  0  0  0  0  0
  133.9620  136.3450  152.7280 O   0  0  0  0  0  0  0  0  0  0  0  0
  135.5040  135.4250  150.1300 H   0  0  0  0  0  0  0  0  0  0  0  0
  133.4000  135.4790  150.0780 C   0  0  0  0  0  2  0  0  0  0  0  0
  133.3980  136.6800  145.8980 C   0  0  0  0  0  0  0  0  0  0  0  0
  132.6950  137.4230  146.8540 C   0  0  0  0  0  3  0  0  0  0  0  0
  132.6880  137.0400  148.2000 C   0  0  0  0  0  3  0  0  0  0  0  0
  133.3590  135.8900  148.6260 C   0  0  0  0  0  0  0  0  0  0  0  0
  134.0670  135.1530  147.6690 C   0  0  0  0  0  3  0  0  0  0  0  0
  134.1020  135.5390  146.3190 C   0  0  0  0  0  0  0  0  0  0  0  0
  134.3000  137.9400  144.0880 C   0  0  0  0  0  1  0  0  0  0  0  0
  133.3680  136.9740  144.5600 O   0  0  0  0  0  0  0  0  0  0  0  0
  134.8300  134.6790  145.5350 O   0  0  0  0  0  0  0  0  0  0  0  0
  134.6020  133.2890  145.7300 C   0  0  0  0  0  1  0  0  0  0  0  0
  137.2760  136.2340  151.2150 N   0  0  0  0  0  4  0  0  0  0  0  0
  136.7240  136.1040  150.3670 H   0  0  0  0  0  0  0  0  0  0  0  0
  137.9510  135.4830  151.3670 H   0  0  0  0  0  0  0  0  0  0  0  0
  138.0520  137.4790  151.0760 C   0  0  1  0  0  3  0  0  0  0  0  0
  139.5770  137.3020  151.1210 C   0  0  0  0  0  0  0  0  0  0  0  0
  140.3140  136.8770  150.0030 C   0  0  0  0  0  3  0  0  0  0  0  0
  141.7090  136.9150  150.0070 C   0  0  0  0  0  3  0  0  0  0  0  0
  142.3920  137.3690  151.1320 C   0  0  0  0  0  3  0  0  0  0  0  0
  141.6830  137.7430  152.2710 C   0  0  0  0  0  3  0  0  0  0  0  0
  140.2870  137.7070  152.2690 C   0  0  0  0  0  3  0  0  0  0  0  0
  137.6090  138.2220  149.8010 C   0  0  0  0  0  0  0  0  0  0  0  0
  137.9530  139.5740  149.6230 C   0  0  0  0  0  3  0  0  0  0  0  0
  137.6550  140.2390  148.4290 C   0  0  0  0  0  3  0  0  0  0  0  0
  137.0060  139.5680  147.3970 C   0  0  0  0  0  3  0  0  0  0  0  0
  136.5990  138.2500  147.5790 C   0  0  0  0  0  3  0  0  0  0  0  0
  136.8760  137.5920  148.7800 C   0  0  0  0  0  3  0  0  0  0  0  0
  2  3  1  0  0  0  0
  3  1  1  0  0  0  0
  3  4  2  0  0  0  0
  5  2  1  0  0  0  0
  6  2  1  0  0  0  0
  7 12  2  0  0  0  0
  7  8  1  0  0  0  0
  8  9  2  0  0  0  0
  9 10  1  0  0  0  0
 10  6  1  0  0  0  0
 11 10  2  0  0  0  0
 12 11  1  0  0  0  0
 13 14  1  0  0  0  0
 14  7  1  0  0  0  0
 15 16  1  0  0  0  0
 15 12  1  0  0  0  0
 17 19  1  0  0  0  0
 17  1  1  0  0  0  0
 18 17  1  0  0  0  0
 20 21  1  0  0  0  0
 20 17  1  6  0  0  0
 21 26  1  0  0  0  0
 22 23  1  0  0  0  0
 22 21  2  0  0  0  0
 23 24  2  0  0  0  0
 24 25  1  0  0  0  0
 26 25  2  0  0  0  0
 27 20  1  0  0  0  0
 28 27  1  0  0  0  0
 29 28  2  0  0  0  0
 30 31  2  0  0  0  0
 30 29  1  0  0  0  0
 31 32  1  0  0  0  0
 32 27  2  0  0  0  0
M  END
>  <MODEL>
2

>  <REMARK>
 VINA RESULT:    -8.236      7.131     10.352
 INTER + INTRA:         -13.508
 INTER:                 -11.385
 INTRA:                  -2.123
 UNBOUND:                -0.939
  Name = CHEMBL1302944
  11 active torsions:
  status: ('A' for Active; 'I' for Inactive)
    1  A    between atoms: C_1  and  O_2
    2  A    between atoms: O_2  and  C_3
    3  A    between atoms: C_6  and  C_7
    4  A    between atoms: C_7  and  N_8
    5  A    between atoms: C_9  and  C_11
    6  A    between atoms: C_11  and  N_12
    7  A    between atoms: N_12  and  C_13
    8  A    between atoms: C_13  and  C_14
    9  A    between atoms: C_13  and  C_20
   10  A    between atoms: C_27  and  O_28
   11  A    between atoms: O_28  and  C_29
                            x       y       z     vdW  Elec       q    Type
                         _______ _______ _______ _____ _____    ______ ____

>  <TORSDO>
F 9

>  <SCORE>
-8.236

>  <RMSD_LB>
7.131

>  <RMSD_UB>
10.352

$$$$
CHEMBL1302944
 OpenBabel10172500403D

 32 34  0  0  1  0  0  0  0  0999 V2000
  136.6680  136.2570  152.4830 C   0  0  0  0  0  2  0  0  0  0  0  0
  135.2250  134.9880  150.9850 N   0  0  0  0  0  0  0  0  0  0  0  0
  135.2580  135.9080  152.0080 C   0  0  0  0  0  0  0  0  0  0  0  0
  134.2470  136.3770  152.5350 O   0  0  0  0  0  0  0  0  0  0  0  0
  136.0750  134.6220  150.6500 H   0  0  0  0  0  0  0  0  0  0  0  0
  133.9880  134.5350  150.3830 C   0  0  0  0  0  2  0  0  0  0  0  0
  133.1250  136.7060  146.7150 C   0  0  0  0  0  0  0  0  0  0  0  0
  132.7170  137.2110  147.9550 C   0  0  0  0  0  3  0  0  0  0  0  0
  132.9880  136.5160  149.1400 C   0  0  0  0  0  3  0  0  0  0  0  0
  133.6490  135.2840  149.1170 C   0  0  0  0  0  0  0  0  0  0  0  0
  134.0610  134.7840  147.8760 C   0  0  0  0  0  3  0  0  0  0  0  0
  133.8160  135.4830  146.6820 C   0  0  0  0  0  0  0  0  0  0  0  0
  133.5380  138.4900  145.1900 C   0  0  0  0  0  1  0  0  0  0  0  0
  132.8120  137.3130  145.5270 O   0  0  0  0  0  0  0  0  0  0  0  0
  134.2780  134.8210  145.5710 O   0  0  0  0  0  0  0  0  0  0  0  0
  134.7070  133.4790  145.7600 C   0  0  0  0  0  1  0  0  0  0  0  0
  137.2300  137.4270  151.7780 N   0  0  0  0  0  4  0  0  0  0  0  0
  137.7900  137.9620  152.4420 H   0  0  0  0  0  0  0  0  0  0  0  0
  136.4380  137.9570  151.4120 H   0  0  0  0  0  0  0  0  0  0  0  0
  138.0810  137.0880  150.6230 C   0  0  1  0  0  3  0  0  0  0  0  0
  137.7360  137.8280  149.3230 C   0  0  0  0  0  0  0  0  0  0  0  0
  137.1450  137.1770  148.2260 C   0  0  0  0  0  3  0  0  0  0  0  0
  136.6590  137.9040  147.1380 C   0  0  0  0  0  3  0  0  0  0  0  0
  136.7650  139.2920  147.1220 C   0  0  0  0  0  3  0  0  0  0  0  0
  137.3960  139.9520  148.1730 C   0  0  0  0  0  3  0  0  0  0  0  0
  137.8820  139.2280  149.2640 C   0  0  0  0  0  3  0  0  0  0  0  0
  139.5620  137.2760  151.0030 C   0  0  0  0  0  0  0  0  0  0  0  0
  139.9010  137.7940  152.2660 C   0  0  0  0  0  3  0  0  0  0  0  0
  141.2360  137.8740  152.6740 C   0  0  0  0  0  3  0  0  0  0  0  0
  142.2550  137.4430  151.8270 C   0  0  0  0  0  3  0  0  0  0  0  0
  141.9440  136.9890  150.5500 C   0  0  0  0  0  3  0  0  0  0  0  0
  140.6120  136.9300  150.1330 C   0  0  0  0  0  3  0  0  0  0  0  0
  2  3  1  0  0  0  0
  3  1  1  0  0  0  0
  3  4  2  0  0  0  0
  5  2  1  0  0  0  0
  6  2  1  0  0  0  0
  7  8  1  0  0  0  0
  8  9  2  0  0  0  0
 10  9  1  0  0  0  0
 10  6  1  0  0  0  0
 11 10  2  0  0  0  0
 12  7  2  0  0  0  0
 12 11  1  0  0  0  0
 13 14  1  0  0  0  0
 14  7  1  0  0  0  0
 15 16  1  0  0  0  0
 15 12  1  0  0  0  0
 17 18  1  0  0  0  0
 17  1  1  0  0  0  0
 19 17  1  0  0  0  0
 20 27  1  0  0  0  0
 20 17  1  1  0  0  0
 21 20  1  0  0  0  0
 22 21  2  0  0  0  0
 23 22  1  0  0  0  0
 24 23  2  0  0  0  0
 24 25  1  0  0  0  0
 25 26  2  0  0  0  0
 26 21  1  0  0  0  0
 27 28  1  0  0  0  0
 28 29  2  0  0  0  0
 30 29  1  0  0  0  0
 31 30  2  0  0  0  0
 32 31  1  0  0  0  0
 32 27  2  0  0  0  0
M  END
>  <MODEL>
3

>  <REMARK>
 VINA RESULT:    -8.158      7.057     10.342
 INTER + INTRA:         -13.389
 INTER:                 -11.249
 INTRA:                  -2.140
 UNBOUND:                -0.939
  Name = CHEMBL1302944
  11 active torsions:
  status: ('A' for Active; 'I' for Inactive)
    1  A    between atoms: C_1  and  O_2
    2  A    between atoms: O_2  and  C_3
    3  A    between atoms: C_6  and  C_7
    4  A    between atoms: C_7  and  N_8
    5  A    between atoms: C_9  and  C_11
    6  A    between atoms: C_11  and  N_12
    7  A    between atoms: N_12  and  C_13
    8  A    between atoms: C_13  and  C_14
    9  A    between atoms: C_13  and  C_20
   10  A    between atoms: C_27  and  O_28
   11  A    between atoms: O_28  and  C_29
                            x       y       z     vdW  Elec       q    Type
                         _______ _______ _______ _____ _____    ______ ____

>  <TORSDO>
F 9

>  <SCORE>
-8.158

>  <RMSD_LB>
7.057

>  <RMSD_UB>
10.342

$$$$
CHEMBL1302944
 OpenBabel10172500403D

 32 34  0  0  1  0  0  0  0  0999 V2000
  144.4080  139.5080  154.6200 C   0  0  0  0  0  2  0  0  0  0  0  0
  142.1110  139.1830  153.8750 N   0  0  0  0  0  0  0  0  0  0  0  0
  143.3120  138.5620  154.1320 C   0  0  0  0  0  0  0  0  0  0  0  0
  143.5110  137.3600  153.9410 O   0  0  0  0  0  0  0  0  0  0  0  0
  142.0450  140.1570  154.0050 H   0  0  0  0  0  0  0  0  0  0  0  0
  140.9420  138.4620  153.4170 C   0  0  0  0  0  2  0  0  0  0  0  0
  140.5280  138.3200  149.0910 C   0  0  0  0  0  0  0  0  0  0  0  0
  141.2090  137.3060  149.7760 C   0  0  0  0  0  3  0  0  0  0  0  0
  141.3490  137.3480  151.1680 C   0  0  0  0  0  3  0  0  0  0  0  0
  140.8390  138.4150  151.9120 C   0  0  0  0  0  0  0  0  0  0  0  0
  140.1530  139.4240  151.2250 C   0  0  0  0  0  3  0  0  0  0  0  0
  139.9840  139.3830  149.8310 C   0  0  0  0  0  0  0  0  0  0  0  0
  139.3850  137.6080  147.1240 C   0  0  0  0  0  1  0  0  0  0  0  0
  140.4350  138.3590  147.7240 O   0  0  0  0  0  0  0  0  0  0  0  0
  139.3040  140.4710  149.3430 O   0  0  0  0  0  0  0  0  0  0  0  0
  137.8920  140.3420  149.2260 C   0  0  0  0  0  1  0  0  0  0  0  0
  144.8160  140.4840  153.5890 N   0  0  0  0  0  4  0  0  0  0  0  0
  145.2050  141.3020  154.0590 H   0  0  0  0  0  0  0  0  0  0  0  0
  143.9800  140.7000  153.0440 H   0  0  0  0  0  0  0  0  0  0  0  0
  145.8210  139.9760  152.6380 C   0  0  1  0  0  3  0  0  0  0  0  0
  145.3250  139.8160  151.1940 C   0  0  0  0  0  0  0  0  0  0  0  0
  145.9060  138.8990  150.3000 C   0  0  0  0  0  3  0  0  0  0  0  0
  145.3160  138.6280  149.0650 C   0  0  0  0  0  3  0  0  0  0  0  0
  144.1400  139.2760  148.6970 C   0  0  0  0  0  3  0  0  0  0  0  0
  143.5760  140.2270  149.5430 C   0  0  0  0  0  3  0  0  0  0  0  0
  144.1640  140.4990  150.7800 C   0  0  0  0  0  3  0  0  0  0  0  0
  147.0840  140.8550  152.7060 C   0  0  0  0  0  0  0  0  0  0  0  0
  147.6940  141.1100  153.9470 C   0  0  0  0  0  3  0  0  0  0  0  0
  148.8990  141.8150  154.0230 C   0  0  0  0  0  3  0  0  0  0  0  0
  149.5130  142.2810  152.8630 C   0  0  0  0  0  3  0  0  0  0  0  0
  148.8920  142.0960  151.6320 C   0  0  0  0  0  3  0  0  0  0  0  0
  147.6760  141.4120  151.5580 C   0  0  0  0  0  3  0  0  0  0  0  0
  2  5  1  0  0  0  0
  2  3  1  0  0  0  0
  3  1  1  0  0  0  0
  4  3  2  0  0  0  0
  6  2  1  0  0  0  0
  7  8  2  0  0  0  0
  7 12  1  0  0  0  0
  8  9  1  0  0  0  0
  9 10  2  0  0  0  0
 10  6  1  0  0  0  0
 11 10  1  0  0  0  0
 12 11  2  0  0  0  0
 13 14  1  0  0  0  0
 14  7  1  0  0  0  0
 15 12  1  0  0  0  0
 16 15  1  0  0  0  0
 17 18  1  0  0  0  0
 17  1  1  0  0  0  0
 19 17  1  0  0  0  0
 20 27  1  0  0  0  0
 20 17  1  1  0  0  0
 21 20  1  0  0  0  0
 22 21  2  0  0  0  0
 23 22  1  0  0  0  0
 24 23  2  0  0  0  0
 24 25  1  0  0  0  0
 25 26  2  0  0  0  0
 26 21  1  0  0  0  0
 27 28  1  0  0  0  0
 28 29  2  0  0  0  0
 30 29  1  0  0  0  0
 31 30  2  0  0  0  0
 32 31  1  0  0  0  0
 32 27  2  0  0  0  0
M  END
>  <MODEL>
4

>  <REMARK>
 VINA RESULT:    -8.115      2.685      6.974
 INTER + INTRA:         -13.323
 INTER:                 -11.036
 INTRA:                  -2.288
 UNBOUND:                -0.939
  Name = CHEMBL1302944
  11 active torsions:
  status: ('A' for Active; 'I' for Inactive)
    1  A    between atoms: C_1  and  O_2
    2  A    between atoms: O_2  and  C_3
    3  A    between atoms: C_6  and  C_7
    4  A    between atoms: C_7  and  N_8
    5  A    between atoms: C_9  and  C_11
    6  A    between atoms: C_11  and  N_12
    7  A    between atoms: N_12  and  C_13
    8  A    between atoms: C_13  and  C_14
    9  A    between atoms: C_13  and  C_20
   10  A    between atoms: C_27  and  O_28
   11  A    between atoms: O_28  and  C_29
                            x       y       z     vdW  Elec       q    Type
                         _______ _______ _______ _____ _____    ______ ____

>  <TORSDO>
F 9

>  <SCORE>
-8.115

>  <RMSD_LB>
2.685

>  <RMSD_UB>
6.974

$$$$
CHEMBL1302944
 OpenBabel10172500403D

 32 34  0  0  1  0  0  0  0  0999 V2000
  144.3490  139.7120  154.9380 C   0  0  0  0  0  2  0  0  0  0  0  0
  142.8080  138.3510  153.6300 N   0  0  0  0  0  0  0  0  0  0  0  0
  142.9150  139.2750  154.6450 C   0  0  0  0  0  0  0  0  0  0  0  0
  141.9510  139.6820  155.2980 O   0  0  0  0  0  0  0  0  0  0  0  0
  143.6300  138.0380  153.1880 H   0  0  0  0  0  0  0  0  0  0  0  0
  141.5360  137.8210  153.1880 C   0  0  0  0  0  2  0  0  0  0  0  0
  140.9390  137.9830  148.8840 C   0  0  0  0  0  0  0  0  0  0  0  0
  141.6300  136.9150  149.4680 C   0  0  0  0  0  3  0  0  0  0  0  0
  141.8290  136.8580  150.8520 C   0  0  0  0  0  3  0  0  0  0  0  0
  141.3690  137.8790  151.6890 C   0  0  0  0  0  0  0  0  0  0  0  0
  140.6730  138.9430  151.1030 C   0  0  0  0  0  3  0  0  0  0  0  0
  140.4460  139.0000  149.7170 C   0  0  0  0  0  0  0  0  0  0  0  0
  139.7470  137.3700  146.9130 C   0  0  0  0  0  1  0  0  0  0  0  0
  140.7900  138.1170  147.5280 O   0  0  0  0  0  0  0  0  0  0  0  0
  139.7640  140.1290  149.3340 O   0  0  0  0  0  0  0  0  0  0  0  0
  139.2680  140.9600  150.3750 C   0  0  0  0  0  1  0  0  0  0  0  0
  145.2740  139.4010  153.8300 N   0  0  0  0  0  4  0  0  0  0  0  0
  144.9110  138.5910  153.3280 H   0  0  0  0  0  0  0  0  0  0  0  0
  146.1880  139.2280  154.2510 H   0  0  0  0  0  0  0  0  0  0  0  0
  145.4560  140.5000  152.8640 C   0  0  1  0  0  3  0  0  0  0  0  0
  146.8190  141.2050  152.9320 C   0  0  0  0  0  0  0  0  0  0  0  0
  147.5330  141.3380  154.1350 C   0  0  0  0  0  3  0  0  0  0  0  0
  148.8500  141.7990  154.1400 C   0  0  0  0  0  3  0  0  0  0  0  0
  149.4730  142.1450  152.9430 C   0  0  0  0  0  3  0  0  0  0  0  0
  148.7660  142.0730  151.7460 C   0  0  0  0  0  3  0  0  0  0  0  0
  147.4480  141.6100  151.7380 C   0  0  0  0  0  3  0  0  0  0  0  0
  145.1540  139.9910  151.4420 C   0  0  0  0  0  0  0  0  0  0  0  0
  145.7060  138.7750  151.0020 C   0  0  0  0  0  3  0  0  0  0  0  0
  145.3610  138.2400  149.7570 C   0  0  0  0  0  3  0  0  0  0  0  0
  144.4660  138.9110  148.9290 C   0  0  0  0  0  3  0  0  0  0  0  0
  143.9610  140.1480  149.3180 C   0  0  0  0  0  3  0  0  0  0  0  0
  144.3220  140.6940  150.5520 C   0  0  0  0  0  3  0  0  0  0  0  0
  2  3  1  0  0  0  0
  3  1  1  0  0  0  0
  3  4  2  0  0  0  0
  5  2  1  0  0  0  0
  6  2  1  0  0  0  0
  7  8  2  0  0  0  0
  7 12  1  0  0  0  0
  8  9  1  0  0  0  0
  9 10  2  0  0  0  0
 10  6  1  0  0  0  0
 11 10  1  0  0  0  0
 12 11  2  0  0  0  0
 13 14  1  0  0  0  0
 14  7  1  0  0  0  0
 15 12  1  0  0  0  0
 15 16  1  0  0  0  0
 17 19  1  0  0  0  0
 17  1  1  0  0  0  0
 18 17  1  0  0  0  0
 20 21  1  0  0  0  0
 20 17  1  1  0  0  0
 21 22  1  0  0  0  0
 22 23  2  0  0  0  0
 24 23  1  0  0  0  0
 25 24  2  0  0  0  0
 26 25  1  0  0  0  0
 26 21  2  0  0  0  0
 27 20  1  0  0  0  0
 28 27  1  0  0  0  0
 29 28  2  0  0  0  0
 30 31  2  0  0  0  0
 30 29  1  0  0  0  0
 31 32  1  0  0  0  0
 32 27  2  0  0  0  0
M  END
>  <MODEL>
5

>  <REMARK>
 VINA RESULT:    -8.089      2.761      6.762
 INTER + INTRA:         -13.284
 INTER:                 -10.950
 INTRA:                  -2.334
 UNBOUND:                -0.939
  Name = CHEMBL1302944
  11 active torsions:
  status: ('A' for Active; 'I' for Inactive)
    1  A    between atoms: C_1  and  O_2
    2  A    between atoms: O_2  and  C_3
    3  A    between atoms: C_6  and  C_7
    4  A    between atoms: C_7  and  N_8
    5  A    between atoms: C_9  and  C_11
    6  A    between atoms: C_11  and  N_12
    7  A    between atoms: N_12  and  C_13
    8  A    between atoms: C_13  and  C_14
    9  A    between atoms: C_13  and  C_20
   10  A    between atoms: C_27  and  O_28
   11  A    between atoms: O_28  and  C_29
                            x       y       z     vdW  Elec       q    Type
                         _______ _______ _______ _____ _____    ______ ____

>  <TORSDO>
F 9

>  <SCORE>
-8.089

>  <RMSD_LB>
2.761

>  <RMSD_UB>
6.762

$$$$
CHEMBL1302944
 OpenBabel10172500403D

 32 34  0  0  1  0  0  0  0  0999 V2000
  146.2970  142.1520  154.1910 C   0  0  0  0  0  2  0  0  0  0  0  0
  145.5150  142.2480  151.8850 N   0  0  0  0  0  0  0  0  0  0  0  0
  146.6230  142.1540  152.6980 C   0  0  0  0  0  0  0  0  0  0  0  0
  147.7790  142.1220  152.2720 O   0  0  0  0  0  0  0  0  0  0  0  0
  144.6270  142.3180  152.3020 H   0  0  0  0  0  0  0  0  0  0  0  0
  145.6070  142.2500  150.4400 C   0  0  0  0  0  2  0  0  0  0  0  0
  145.2370  138.2280  148.8280 C   0  0  0  0  0  0  0  0  0  0  0  0
  146.4950  138.7600  149.1350 C   0  0  0  0  0  3  0  0  0  0  0  0
  146.6210  140.0550  149.6510 C   0  0  0  0  0  3  0  0  0  0  0  0
  145.5000  140.8660  149.8480 C   0  0  0  0  0  0  0  0  0  0  0  0
  144.2430  140.3290  149.5450 C   0  0  0  0  0  3  0  0  0  0  0  0
  144.0990  139.0220  149.0490 C   0  0  0  0  0  0  0  0  0  0  0  0
  145.6740  135.8870  148.9060 C   0  0  0  0  0  1  0  0  0  0  0  0
  145.0730  136.9970  148.2490 O   0  0  0  0  0  0  0  0  0  0  0  0
  142.7920  138.6880  148.7950 O   0  0  0  0  0  0  0  0  0  0  0  0
  141.7960  139.5370  149.3500 C   0  0  0  0  0  1  0  0  0  0  0  0
  145.3800  141.0590  154.5700 N   0  0  0  0  0  4  0  0  0  0  0  0
  144.4260  141.4200  154.5500 H   0  0  0  0  0  0  0  0  0  0  0  0
  145.6650  140.7460  155.4990 H   0  0  0  0  0  0  0  0  0  0  0  0
  145.4460  139.8790  153.6880 C   0  0  1  0  0  3  0  0  0  0  0  0
  146.5940  138.9050  153.9920 C   0  0  0  0  0  0  0  0  0  0  0  0
  147.5090  138.4980  153.0060 C   0  0  0  0  0  3  0  0  0  0  0  0
  148.6550  137.7770  153.3450 C   0  0  0  0  0  3  0  0  0  0  0  0
  148.9010  137.4410  154.6740 C   0  0  0  0  0  3  0  0  0  0  0  0
  147.9800  137.7870  155.6590 C   0  0  0  0  0  3  0  0  0  0  0  0
  146.8330  138.5100  155.3230 C   0  0  0  0  0  3  0  0  0  0  0  0
  144.0830  139.1600  153.6870 C   0  0  0  0  0  0  0  0  0  0  0  0
  143.1620  139.4040  154.7220 C   0  0  0  0  0  3  0  0  0  0  0  0
  141.8800  138.8470  154.6870 C   0  0  0  0  0  3  0  0  0  0  0  0
  141.4970  138.0350  153.6230 C   0  0  0  0  0  3  0  0  0  0  0  0
  142.4150  137.7290  152.6240 C   0  0  0  0  0  3  0  0  0  0  0  0
  143.7040  138.2670  152.6700 C   0  0  0  0  0  3  0  0  0  0  0  0
  1 17  1  0  0  0  0
  2  5  1  0  0  0  0
  2  3  1  0  0  0  0
  3  1  1  0  0  0  0
  4  3  2  0  0  0  0
  6  2  1  0  0  0  0
  7 12  2  0  0  0  0
  7  8  1  0  0  0  0
  8  9  2  0  0  0  0
  9 10  1  0  0  0  0
 10  6  1  0  0  0  0
 11 10  2  0  0  0  0
 12 11  1  0  0  0  0
 14  7  1  0  0  0  0
 14 13  1  0  0  0  0
 15 12  1  0  0  0  0
 15 16  1  0  0  0  0
 17 19  1  0  0  0  0
 18 17  1  0  0  0  0
 20 21  1  0  0  0  0
 20 17  1  1  0  0  0
 21 26  1  0  0  0  0
 22 23  1  0  0  0  0
 22 21  2  0  0  0  0
 23 24  2  0  0  0  0
 24 25  1  0  0  0  0
 26 25  2  0  0  0  0
 27 20  1  0  0  0  0
 27 28  1  0  0  0  0
 29 28  2  0  0  0  0
 30 29  1  0  0  0  0
 31 32  1  0  0  0  0
 31 30  2  0  0  0  0
 32 27  2  0  0  0  0
M  END
>  <MODEL>
6

>  <REMARK>
 VINA RESULT:    -8.024      2.388      5.209
 INTER + INTRA:         -13.184
 INTER:                 -10.995
 INTRA:                  -2.189
 UNBOUND:                -0.939
  Name = CHEMBL1302944
  11 active torsions:
  status: ('A' for Active; 'I' for Inactive)
    1  A    between atoms: C_1  and  O_2
    2  A    between atoms: O_2  and  C_3
    3  A    between atoms: C_6  and  C_7
    4  A    between atoms: C_7  and  N_8
    5  A    between atoms: C_9  and  C_11
    6  A    between atoms: C_11  and  N_12
    7  A    between atoms: N_12  and  C_13
    8  A    between atoms: C_13  and  C_14
    9  A    between atoms: C_13  and  C_20
   10  A    between atoms: C_27  and  O_28
   11  A    between atoms: O_28  and  C_29
                            x       y       z     vdW  Elec       q    Type
                         _______ _______ _______ _____ _____    ______ ____

>  <TORSDO>
F 9

>  <SCORE>
-8.024

>  <RMSD_LB>
2.388

>  <RMSD_UB>
5.209

$$$$
CHEMBL1302944
 OpenBabel10172500403D

 32 34  0  0  1  0  0  0  0  0999 V2000
  143.8990  139.6240  154.7780 C   0  0  0  0  0  2  0  0  0  0  0  0
  141.7980  138.8580  153.8110 N   0  0  0  0  0  0  0  0  0  0  0  0
  142.4240  139.2750  154.9640 C   0  0  0  0  0  0  0  0  0  0  0  0
  141.8660  139.3190  156.0630 O   0  0  0  0  0  0  0  0  0  0  0  0
  142.3240  138.8030  152.9810 H   0  0  0  0  0  0  0  0  0  0  0  0
  140.3970  138.4950  153.7710 C   0  0  0  0  0  2  0  0  0  0  0  0
  139.1170  136.8950  149.9360 C   0  0  0  0  0  0  0  0  0  0  0  0
  140.4760  137.0920  150.2090 C   0  0  0  0  0  3  0  0  0  0  0  0
  140.8950  137.6100  151.4400 C   0  0  0  0  0  3  0  0  0  0  0  0
  139.9690  137.9730  152.4220 C   0  0  0  0  0  0  0  0  0  0  0  0
  138.6110  137.7680  152.1490 C   0  0  0  0  0  3  0  0  0  0  0  0
  138.1780  137.2270  150.9260 C   0  0  0  0  0  0  0  0  0  0  0  0
  138.8850  137.3160  147.6020 C   0  0  0  0  0  1  0  0  0  0  0  0
  138.6600  136.4640  148.7180 O   0  0  0  0  0  0  0  0  0  0  0  0
  136.8110  137.1230  150.8410 O   0  0  0  0  0  0  0  0  0  0  0  0
  136.1760  136.2690  151.7840 C   0  0  0  0  0  1  0  0  0  0  0  0
  144.2090  140.0620  153.4010 N   0  0  0  0  0  4  0  0  0  0  0  0
  144.1320  141.0780  153.3640 H   0  0  0  0  0  0  0  0  0  0  0  0
  143.5430  139.5920  152.7870 H   0  0  0  0  0  0  0  0  0  0  0  0
  145.5550  139.6830  152.9330 C   0  0  1  0  0  3  0  0  0  0  0  0
  145.6410  138.3120  152.2470 C   0  0  0  0  0  0  0  0  0  0  0  0
  144.5660  137.7690  151.5230 C   0  0  0  0  0  3  0  0  0  0  0  0
  144.7310  136.6220  150.7450 C   0  0  0  0  0  3  0  0  0  0  0  0
  145.9710  135.9920  150.6860 C   0  0  0  0  0  3  0  0  0  0  0  0
  147.0360  136.4810  151.4380 C   0  0  0  0  0  3  0  0  0  0  0  0
  146.8740  137.6300  152.2160 C   0  0  0  0  0  3  0  0  0  0  0  0
  146.1200  140.8000  152.0340 C   0  0  0  0  0  0  0  0  0  0  0  0
  147.5040  141.0480  152.0130 C   0  0  0  0  0  3  0  0  0  0  0  0
  148.0520  141.9810  151.1270 C   0  0  0  0  0  3  0  0  0  0  0  0
  147.2280  142.6860  150.2540 C   0  0  0  0  0  3  0  0  0  0  0  0
  145.8500  142.5030  150.3060 C   0  0  0  0  0  3  0  0  0  0  0  0
  145.3000  141.5870  151.2060 C   0  0  0  0  0  3  0  0  0  0  0  0
  1  3  1  0  0  0  0
  2  3  1  0  0  0  0
  3  4  2  0  0  0  0
  5  2  1  0  0  0  0
  6  2  1  0  0  0  0
  7  8  2  0  0  0  0
  7 12  1  0  0  0  0
  8  9  1  0  0  0  0
  9 10  2  0  0  0  0
 10  6  1  0  0  0  0
 11 10  1  0  0  0  0
 12 11  2  0  0  0  0
 13 14  1  0  0  0  0
 14  7  1  0  0  0  0
 15 12  1  0  0  0  0
 15 16  1  0  0  0  0
 17  1  1  0  0  0  0
 18 17  1  0  0  0  0
 19 17  1  0  0  0  0
 20 17  1  6  0  0  0
 21 20  1  0  0  0  0
 22 21  2  0  0  0  0
 23 22  1  0  0  0  0
 24 23  2  0  0  0  0
 24 25  1  0  0  0  0
 25 26  2  0  0  0  0
 26 21  1  0  0  0  0
 27 20  1  0  0  0  0
 28 27  1  0  0  0  0
 29 28  2  0  0  0  0
 30 31  2  0  0  0  0
 30 29  1  0  0  0  0
 31 32  1  0  0  0  0
 32 27  2  0  0  0  0
M  END
>  <MODEL>
7

>  <REMARK>
 VINA RESULT:    -7.952      3.060      7.218
 INTER + INTRA:         -13.075
 INTER:                 -11.488
 INTRA:                  -1.588
 UNBOUND:                -0.939
  Name = CHEMBL1302944
  11 active torsions:
  status: ('A' for Active; 'I' for Inactive)
    1  A    between atoms: C_1  and  O_2
    2  A    between atoms: O_2  and  C_3
    3  A    between atoms: C_6  and  C_7
    4  A    between atoms: C_7  and  N_8
    5  A    between atoms: C_9  and  C_11
    6  A    between atoms: C_11  and  N_12
    7  A    between atoms: N_12  and  C_13
    8  A    between atoms: C_13  and  C_14
    9  A    between atoms: C_13  and  C_20
   10  A    between atoms: C_27  and  O_28
   11  A    between atoms: O_28  and  C_29
                            x       y       z     vdW  Elec       q    Type
                         _______ _______ _______ _____ _____    ______ ____

>  <TORSDO>
F 9

>  <SCORE>
-7.952

>  <RMSD_LB>
3.060

>  <RMSD_UB>
7.218

$$$$
CHEMBL1302944
 OpenBabel10172500403D

 32 34  0  0  1  0  0  0  0  0999 V2000
  141.9120  139.3910  151.0220 C   0  0  0  0  0  2  0  0  0  0  0  0
  142.9520  139.5490  153.2200 N   0  0  0  0  0  0  0  0  0  0  0  0
  142.3270  138.7100  152.3250 C   0  0  0  0  0  0  0  0  0  0  0  0
  142.0780  137.5260  152.5630 O   0  0  0  0  0  0  0  0  0  0  0  0
  143.0720  140.4950  152.9770 H   0  0  0  0  0  0  0  0  0  0  0  0
  143.4360  139.0950  154.5070 C   0  0  0  0  0  2  0  0  0  0  0  0
  147.5840  137.8100  154.2680 C   0  0  0  0  0  0  0  0  0  0  0  0
  146.5410  136.8910  154.1000 C   0  0  0  0  0  3  0  0  0  0  0  0
  145.2040  137.2970  154.1790 C   0  0  0  0  0  3  0  0  0  0  0  0
  144.8700  138.6250  154.4570 C   0  0  0  0  0  0  0  0  0  0  0  0
  145.9140  139.5440  154.6180 C   0  0  0  0  0  3  0  0  0  0  0  0
  147.2600  139.1540  154.5180 C   0  0  0  0  0  0  0  0  0  0  0  0
  149.5630  137.3660  153.0180 C   0  0  0  0  0  1  0  0  0  0  0  0
  148.9040  137.4420  154.2760 O   0  0  0  0  0  0  0  0  0  0  0  0
  148.1340  140.1920  154.7270 O   0  0  0  0  0  0  0  0  0  0  0  0
  147.8170  141.4300  154.1020 C   0  0  0  0  0  1  0  0  0  0  0  0
  142.9780  139.3590  150.0010 N   0  0  0  0  0  4  0  0  0  0  0  0
  142.9640  140.2450  149.4960 H   0  0  0  0  0  0  0  0  0  0  0  0
  142.7830  138.5580  149.3990 H   0  0  0  0  0  0  0  0  0  0  0  0
  144.3340  139.1600  150.5450 C   0  0  1  0  0  3  0  0  0  0  0  0
  145.0890  137.9490  149.9780 C   0  0  0  0  0  0  0  0  0  0  0  0
  146.2400  137.4290  150.5950 C   0  0  0  0  0  3  0  0  0  0  0  0
  146.7910  136.2160  150.1800 C   0  0  0  0  0  3  0  0  0  0  0  0
  146.2070  135.5060  149.1340 C   0  0  0  0  0  3  0  0  0  0  0  0
  145.0990  136.0290  148.4730 C   0  0  0  0  0  3  0  0  0  0  0  0
  144.5440  137.2420  148.8880 C   0  0  0  0  0  3  0  0  0  0  0  0
  145.1480  140.4570  150.3860 C   0  0  0  0  0  0  0  0  0  0  0  0
  145.8840  140.6820  149.2090 C   0  0  0  0  0  3  0  0  0  0  0  0
  146.5440  141.8970  148.9970 C   0  0  0  0  0  3  0  0  0  0  0  0
  146.4850  142.9040  149.9570 C   0  0  0  0  0  3  0  0  0  0  0  0
  145.8180  142.6750  151.1560 C   0  0  0  0  0  3  0  0  0  0  0  0
  145.1780  141.4530  151.3780 C   0  0  0  0  0  3  0  0  0  0  0  0
  1  3  1  0  0  0  0
  2  6  1  0  0  0  0
  3  4  2  0  0  0  0
  3  2  1  0  0  0  0
  5  2  1  0  0  0  0
  7 14  1  0  0  0  0
  7 12  1  0  0  0  0
  8  9  1  0  0  0  0
  8  7  2  0  0  0  0
  9 10  2  0  0  0  0
 10  6  1  0  0  0  0
 10 11  1  0  0  0  0
 12 11  2  0  0  0  0
 12 15  1  0  0  0  0
 13 14  1  0  0  0  0
 16 15  1  0  0  0  0
 17  1  1  0  0  0  0
 18 17  1  0  0  0  0
 19 17  1  0  0  0  0
 20 17  1  6  0  0  0
 21 20  1  0  0  0  0
 21 22  1  0  0  0  0
 23 22  2  0  0  0  0
 24 23  1  0  0  0  0
 25 26  1  0  0  0  0
 25 24  2  0  0  0  0
 26 21  2  0  0  0  0
 27 20  1  0  0  0  0
 27 32  1  0  0  0  0
 28 27  2  0  0  0  0
 29 28  1  0  0  0  0
 29 30  2  0  0  0  0
 30 31  1  0  0  0  0
 31 32  2  0  0  0  0
M  END
>  <MODEL>
8

>  <REMARK>
 VINA RESULT:    -7.923      3.073      6.513
 INTER + INTRA:         -13.031
 INTER:                 -10.780
 INTRA:                  -2.251
 UNBOUND:                -0.939
  Name = CHEMBL1302944
  11 active torsions:
  status: ('A' for Active; 'I' for Inactive)
    1  A    between atoms: C_1  and  O_2
    2  A    between atoms: O_2  and  C_3
    3  A    between atoms: C_6  and  C_7
    4  A    between atoms: C_7  and  N_8
    5  A    between atoms: C_9  and  C_11
    6  A    between atoms: C_11  and  N_12
    7  A    between atoms: N_12  and  C_13
    8  A    between atoms: C_13  and  C_14
    9  A    between atoms: C_13  and  C_20
   10  A    between atoms: C_27  and  O_28
   11  A    between atoms: O_28  and  C_29
                            x       y       z     vdW  Elec       q    Type
                         _______ _______ _______ _____ _____    ______ ____

>  <TORSDO>
F 9

>  <SCORE>
-7.923

>  <RMSD_LB>
3.073

>  <RMSD_UB>
6.513

$$$$
CHEMBL1302944
 OpenBabel10172500403D

 32 34  0  0  1  0  0  0  0  0999 V2000
  142.5230  139.1660  153.9350 C   0  0  0  0  0  2  0  0  0  0  0  0
  140.1210  138.7680  154.0150 N   0  0  0  0  0  0  0  0  0  0  0  0
  141.3110  138.3760  153.4450 C   0  0  0  0  0  0  0  0  0  0  0  0
  141.3960  137.5020  152.5800 O   0  0  0  0  0  0  0  0  0  0  0  0
  140.1280  139.5080  154.6630 H   0  0  0  0  0  0  0  0  0  0  0  0
  138.8580  138.1350  153.6960 C   0  0  0  0  0  2  0  0  0  0  0  0
  136.8840  136.3460  157.1330 C   0  0  0  0  0  0  0  0  0  0  0  0
  137.9650  137.2180  157.3060 C   0  0  0  0  0  3  0  0  0  0  0  0
  138.6080  137.7950  156.2040 C   0  0  0  0  0  3  0  0  0  0  0  0
  138.2080  137.4950  154.8990 C   0  0  0  0  0  0  0  0  0  0  0  0
  137.1220  136.6280  154.7290 C   0  0  0  0  0  3  0  0  0  0  0  0
  136.4530  136.0610  155.8270 C   0  0  0  0  0  0  0  0  0  0  0  0
  136.0620  136.4510  159.3680 C   0  0  0  0  0  1  0  0  0  0  0  0
  136.2760  135.7000  158.1780 O   0  0  0  0  0  0  0  0  0  0  0  0
  135.4300  135.2240  155.4550 O   0  0  0  0  0  0  0  0  0  0  0  0
  135.2250  135.0470  154.0590 C   0  0  0  0  0  1  0  0  0  0  0  0
  143.4250  139.5620  152.8340 N   0  0  0  0  0  4  0  0  0  0  0  0
  142.9800  140.3170  152.3110 H   0  0  0  0  0  0  0  0  0  0  0  0
  143.5810  138.7270  152.2690 H   0  0  0  0  0  0  0  0  0  0  0  0
  144.7530  140.0270  153.2760 C   0  0  1  0  0  3  0  0  0  0  0  0
  145.6320  138.9520  153.9300 C   0  0  0  0  0  0  0  0  0  0  0  0
  145.5120  137.5890  153.6080 C   0  0  0  0  0  3  0  0  0  0  0  0
  146.4490  136.6590  154.0600 C   0  0  0  0  0  3  0  0  0  0  0  0
  147.5160  137.0720  154.8520 C   0  0  0  0  0  3  0  0  0  0  0  0
  147.6250  138.4080  155.2290 C   0  0  0  0  0  3  0  0  0  0  0  0
  146.6900  139.3420  154.7760 C   0  0  0  0  0  3  0  0  0  0  0  0
  145.4770  140.7090  152.1000 C   0  0  0  0  0  0  0  0  0  0  0  0
  146.0870  139.9250  151.1040 C   0  0  0  0  0  3  0  0  0  0  0  0
  146.6560  140.5170  149.9730 C   0  0  0  0  0  3  0  0  0  0  0  0
  146.6330  141.9010  149.8190 C   0  0  0  0  0  3  0  0  0  0  0  0
  146.0930  142.6970  150.8240 C   0  0  0  0  0  3  0  0  0  0  0  0
  145.5440  142.1070  151.9650 C   0  0  0  0  0  3  0  0  0  0  0  0
  2  5  1  0  0  0  0
  3  1  1  0  0  0  0
  3  2  1  0  0  0  0
  4  3  2  0  0  0  0
  6  2  1  0  0  0  0
  6 10  1  0  0  0  0
  7  8  1  0  0  0  0
  7 14  1  0  0  0  0
  9  8  2  0  0  0  0
 10  9  1  0  0  0  0
 11 10  2  0  0  0  0
 11 12  1  0  0  0  0
 12  7  2  0  0  0  0
 14 13  1  0  0  0  0
 15 12  1  0  0  0  0
 16 15  1  0  0  0  0
 17  1  1  0  0  0  0
 18 17  1  0  0  0  0
 19 17  1  0  0  0  0
 20 17  1  6  0  0  0
 20 21  1  0  0  0  0
 21 26  1  0  0  0  0
 22 21  2  0  0  0  0
 22 23  1  0  0  0  0
 23 24  2  0  0  0  0
 24 25  1  0  0  0  0
 26 25  2  0  0  0  0
 27 20  1  0  0  0  0
 28 27  2  0  0  0  0
 29 28  1  0  0  0  0
 30 29  2  0  0  0  0
 30 31  1  0  0  0  0
 31 32  2  0  0  0  0
 32 27  1  0  0  0  0
M  END
>  <MODEL>
9

>  <REMARK>
 VINA RESULT:    -7.757      3.539      8.890
 INTER + INTRA:         -12.777
 INTER:                 -11.838
 INTRA:                  -0.939
 UNBOUND:                -0.939
  Name = CHEMBL1302944
  11 active torsions:
  status: ('A' for Active; 'I' for Inactive)
    1  A    between atoms: C_1  and  O_2
    2  A    between atoms: O_2  and  C_3
    3  A    between atoms: C_6  and  C_7
    4  A    between atoms: C_7  and  N_8
    5  A    between atoms: C_9  and  C_11
    6  A    between atoms: C_11  and  N_12
    7  A    between atoms: N_12  and  C_13
    8  A    between atoms: C_13  and  C_14
    9  A    between atoms: C_13  and  C_20
   10  A    between atoms: C_27  and  O_28
   11  A    between atoms: O_28  and  C_29
                            x       y       z     vdW  Elec       q    Type
                         _______ _______ _______ _____ _____    ______ ____

>  <TORSDO>
F 9

>  <SCORE>
-7.757

>  <RMSD_LB>
3.539

>  <RMSD_UB>
8.890

$$$$
