CHEMBL76961
 OpenBabel10172500243D

 23 23  0  0  0  0  0  0  0  0999 V2000
  146.8800  139.6900  155.0320 N   0  0  0  0  0  0  0  0  0  0  0  0
  147.7900  140.6000  154.5350 C   0  0  0  0  0  0  0  0  0  0  0  0
  148.9980  140.3860  154.4770 O   0  0  0  0  0  0  0  0  0  0  0  0
  145.9210  139.9100  155.0070 H   0  0  0  0  0  0  0  0  0  0  0  0
  147.2970  138.4200  155.5910 C   0  0  0  0  0  2  0  0  0  0  0  0
  147.0230  137.2440  154.6530 C   0  0  0  0  0  2  0  0  0  0  0  0
  145.5560  137.1780  154.2230 C   0  0  0  0  0  2  0  0  0  0  0  0
  145.4110  137.2710  152.7030 C   0  0  0  0  0  2  0  0  0  0  0  0
  146.1980  136.1590  152.0090 C   0  0  0  0  0  2  0  0  0  0  0  0
  147.2970  136.7310  151.1150 C   0  0  0  0  0  2  0  0  0  0  0  0
  146.6110  138.2740  149.2480 C   0  0  0  0  0  1  0  0  0  0  0  0
  146.9940  138.1740  150.7160 C   0  0  0  0  0  2  0  0  0  0  0  0
  147.1720  141.9070  154.0660 C   0  0  0  0  0  2  0  0  0  0  0  0
  146.8790  141.9190  152.5860 C   0  0  0  0  0  0  0  0  0  0  0  0
  147.8650  142.2900  151.6660 C   0  0  0  0  0  3  0  0  0  0  0  0
  147.5900  142.2950  150.2980 C   0  0  0  0  0  3  0  0  0  0  0  0
  146.3240  141.9250  149.8300 C   0  0  0  0  0  0  0  0  0  0  0  0
  145.3250  141.5410  150.7300 C   0  0  0  0  0  0  0  0  0  0  0  0
  145.6180  141.5390  152.1030 C   0  0  0  0  0  3  0  0  0  0  0  0
  146.1050  141.9500  148.4800 O   0  0  0  0  0  0  0  0  0  0  0  0
  145.2680  141.7030  148.1370 H   0  0  0  0  0  0  0  0  0  0  0  0
  144.0400  141.1490  150.4630 O   0  0  0  0  0  0  0  0  0  0  0  0
  143.6340  139.8530  150.8810 C   0  0  0  0  0  1  0  0  0  0  0  0
  1  5  1  0  0  0  0
  2  1  1  0  0  0  0
  3  2  2  0  0  0  0
  4  1  1  0  0  0  0
  6  5  1  0  0  0  0
  7  6  1  0  0  0  0
  8  7  1  0  0  0  0
  9  8  1  0  0  0  0
 10  9  1  0  0  0  0
 11 12  1  0  0  0  0
 12 10  1  0  0  0  0
 13  2  1  0  0  0  0
 14 13  1  0  0  0  0
 15 14  2  0  0  0  0
 16 15  1  0  0  0  0
 17 16  2  0  0  0  0
 17 18  1  0  0  0  0
 18 19  2  0  0  0  0
 19 14  1  0  0  0  0
 20 17  1  0  0  0  0
 21 20  1  0  0  0  0
 22 18  1  0  0  0  0
 22 23  1  0  0  0  0
M  END
>  <MODEL>
1

>  <REMARK>
 VINA RESULT:    -6.067      0.000      0.000
 INTER + INTRA:         -11.260
 INTER:                  -9.662
 INTRA:                  -1.598
 UNBOUND:                -1.469
  Name = CHEMBL76961
  13 active torsions:
  status: ('A' for Active; 'I' for Inactive)
    1  A    between atoms: C_1  and  C_2
    2  A    between atoms: C_2  and  C_3
    3  A    between atoms: C_3  and  C_4
    4  A    between atoms: C_4  and  C_5
    5  A    between atoms: C_5  and  C_6
    6  A    between atoms: C_6  and  C_7
    7  A    between atoms: C_7  and  C_8
    8  A    between atoms: C_8  and  N_9
    9  A    between atoms: C_10  and  C_12
   10  A    between atoms: C_12  and  C_13
   11  A    between atoms: C_16  and  O_17
   12  A    between atoms: C_18  and  O_19
   13  A    between atoms: O_19  and  C_20
                            x       y       z     vdW  Elec       q    Type
                         _______ _______ _______ _____ _____    ______ ____

>  <TORSDO>
F 11

>  <SCORE>
-6.067

>  <RMSD_LB>
0.000

>  <RMSD_UB>
0.000

$$$$
CHEMBL76961
 OpenBabel10172500243D

 23 23  0  0  0  0  0  0  0  0999 V2000
  137.5040  136.9620  155.3730 N   0  0  0  0  0  0  0  0  0  0  0  0
  137.8290  138.2890  155.1860 C   0  0  0  0  0  0  0  0  0  0  0  0
  137.0210  139.2070  155.3060 O   0  0  0  0  0  0  0  0  0  0  0  0
  138.2120  136.2810  155.3040 H   0  0  0  0  0  0  0  0  0  0  0  0
  136.1480  136.5410  155.6650 C   0  0  0  0  0  2  0  0  0  0  0  0
  135.7620  135.2520  154.9380 C   0  0  0  0  0  2  0  0  0  0  0  0
  135.5480  135.4750  153.4390 C   0  0  0  0  0  2  0  0  0  0  0  0
  135.8160  134.2020  152.6370 C   0  0  0  0  0  2  0  0  0  0  0  0
  135.8440  134.4950  151.1370 C   0  0  0  0  0  2  0  0  0  0  0  0
  134.4310  134.6220  150.5680 C   0  0  0  0  0  2  0  0  0  0  0  0
  132.6870  133.5010  149.1400 C   0  0  0  0  0  1  0  0  0  0  0  0
  133.9650  133.3090  149.9410 C   0  0  0  0  0  2  0  0  0  0  0  0
  139.2820  138.5290  154.8090 C   0  0  0  0  0  2  0  0  0  0  0  0
  139.6000  138.1030  153.3970 C   0  0  0  0  0  0  0  0  0  0  0  0
  140.9120  137.7980  153.0220 C   0  0  0  0  0  3  0  0  0  0  0  0
  141.2000  137.3990  151.7160 C   0  0  0  0  0  3  0  0  0  0  0  0
  140.1790  137.2980  150.7660 C   0  0  0  0  0  0  0  0  0  0  0  0
  138.8570  137.5880  151.1190 C   0  0  0  0  0  0  0  0  0  0  0  0
  138.5830  137.9840  152.4380 C   0  0  0  0  0  3  0  0  0  0  0  0
  140.5140  136.9060  149.5000 O   0  0  0  0  0  0  0  0  0  0  0  0
  141.1540  136.2330  149.3710 H   0  0  0  0  0  0  0  0  0  0  0  0
  137.7340  137.5430  150.3370 O   0  0  0  0  0  0  0  0  0  0  0  0
  137.5290  138.5910  149.3990 C   0  0  0  0  0  1  0  0  0  0  0  0
  1  5  1  0  0  0  0
  2  3  2  0  0  0  0
  2  1  1  0  0  0  0
  4  1  1  0  0  0  0
  6  5  1  0  0  0  0
  7  6  1  0  0  0  0
  8  7  1  0  0  0  0
  9  8  1  0  0  0  0
 10  9  1  0  0  0  0
 11 12  1  0  0  0  0
 12 10  1  0  0  0  0
 13  2  1  0  0  0  0
 14 13  1  0  0  0  0
 15 14  1  0  0  0  0
 16 15  2  0  0  0  0
 17 18  2  0  0  0  0
 17 16  1  0  0  0  0
 18 19  1  0  0  0  0
 19 14  2  0  0  0  0
 20 17  1  0  0  0  0
 21 20  1  0  0  0  0
 22 18  1  0  0  0  0
 23 22  1  0  0  0  0
M  END
>  <MODEL>
2

>  <REMARK>
 VINA RESULT:    -5.608      8.163     10.030
 INTER + INTRA:         -10.520
 INTER:                  -9.763
 INTRA:                  -0.756
 UNBOUND:                -1.469
  Name = CHEMBL76961
  13 active torsions:
  status: ('A' for Active; 'I' for Inactive)
    1  A    between atoms: C_1  and  C_2
    2  A    between atoms: C_2  and  C_3
    3  A    between atoms: C_3  and  C_4
    4  A    between atoms: C_4  and  C_5
    5  A    between atoms: C_5  and  C_6
    6  A    between atoms: C_6  and  C_7
    7  A    between atoms: C_7  and  C_8
    8  A    between atoms: C_8  and  N_9
    9  A    between atoms: C_10  and  C_12
   10  A    between atoms: C_12  and  C_13
   11  A    between atoms: C_16  and  O_17
   12  A    between atoms: C_18  and  O_19
   13  A    between atoms: O_19  and  C_20
                            x       y       z     vdW  Elec       q    Type
                         _______ _______ _______ _____ _____    ______ ____

>  <TORSDO>
F 11

>  <SCORE>
-5.608

>  <RMSD_LB>
8.163

>  <RMSD_UB>
10.030

$$$$
CHEMBL76961
 OpenBabel10172500243D

 23 23  0  0  0  0  0  0  0  0999 V2000
  133.6230  133.7390  146.4930 N   0  0  0  0  0  0  0  0  0  0  0  0
  133.6890  133.0630  147.6940 C   0  0  0  0  0  0  0  0  0  0  0  0
  134.4030  132.0810  147.8800 O   0  0  0  0  0  0  0  0  0  0  0  0
  133.0630  134.5460  146.4290 H   0  0  0  0  0  0  0  0  0  0  0  0
  134.3540  133.2930  145.3250 C   0  0  0  0  0  2  0  0  0  0  0  0
  135.6000  134.1360  145.0520 C   0  0  0  0  0  2  0  0  0  0  0  0
  135.3610  135.1880  143.9670 C   0  0  0  0  0  2  0  0  0  0  0  0
  135.3640  136.6030  144.5460 C   0  0  0  0  0  2  0  0  0  0  0  0
  134.1640  137.4050  144.0400 C   0  0  0  0  0  2  0  0  0  0  0  0
  132.9650  137.2610  144.9760 C   0  0  0  0  0  2  0  0  0  0  0  0
  132.2230  137.0590  147.3730 C   0  0  0  0  0  1  0  0  0  0  0  0
  133.3930  137.3270  146.4420 C   0  0  0  0  0  2  0  0  0  0  0  0
  132.7920  133.6340  148.7810 C   0  0  0  0  0  2  0  0  0  0  0  0
  133.5580  134.3950  149.8350 C   0  0  0  0  0  0  0  0  0  0  0  0
  134.5480  135.3140  149.4720 C   0  0  0  0  0  3  0  0  0  0  0  0
  135.2500  136.0190  150.4500 C   0  0  0  0  0  3  0  0  0  0  0  0
  134.9700  135.8170  151.8060 C   0  0  0  0  0  0  0  0  0  0  0  0
  133.9780  134.9110  152.1930 C   0  0  0  0  0  0  0  0  0  0  0  0
  133.2780  134.2110  151.1970 C   0  0  0  0  0  3  0  0  0  0  0  0
  135.6890  136.5310  152.7250 O   0  0  0  0  0  0  0  0  0  0  0  0
  135.6670  136.2860  153.6300 H   0  0  0  0  0  0  0  0  0  0  0  0
  133.5650  134.5840  153.4580 O   0  0  0  0  0  0  0  0  0  0  0  0
  134.3780  133.7050  154.2220 C   0  0  0  0  0  1  0  0  0  0  0  0
  1  2  1  0  0  0  0
  2  3  2  0  0  0  0
  2 13  1  0  0  0  0
  4  1  1  0  0  0  0
  5  1  1  0  0  0  0
  6  5  1  0  0  0  0
  7  8  1  0  0  0  0
  7  6  1  0  0  0  0
  9  8  1  0  0  0  0
  9 10  1  0  0  0  0
 10 12  1  0  0  0  0
 12 11  1  0  0  0  0
 13 14  1  0  0  0  0
 14 19  1  0  0  0  0
 15 14  2  0  0  0  0
 15 16  1  0  0  0  0
 16 17  2  0  0  0  0
 17 18  1  0  0  0  0
 17 20  1  0  0  0  0
 18 22  1  0  0  0  0
 19 18  2  0  0  0  0
 20 21  1  0  0  0  0
 22 23  1  0  0  0  0
M  END
>  <MODEL>
3

>  <REMARK>
 VINA RESULT:    -5.485     12.540     14.905
 INTER + INTRA:         -10.321
 INTER:                  -8.955
 INTRA:                  -1.366
 UNBOUND:                -1.469
  Name = CHEMBL76961
  13 active torsions:
  status: ('A' for Active; 'I' for Inactive)
    1  A    between atoms: C_1  and  C_2
    2  A    between atoms: C_2  and  C_3
    3  A    between atoms: C_3  and  C_4
    4  A    between atoms: C_4  and  C_5
    5  A    between atoms: C_5  and  C_6
    6  A    between atoms: C_6  and  C_7
    7  A    between atoms: C_7  and  C_8
    8  A    between atoms: C_8  and  N_9
    9  A    between atoms: C_10  and  C_12
   10  A    between atoms: C_12  and  C_13
   11  A    between atoms: C_16  and  O_17
   12  A    between atoms: C_18  and  O_19
   13  A    between atoms: O_19  and  C_20
                            x       y       z     vdW  Elec       q    Type
                         _______ _______ _______ _____ _____    ______ ____

>  <TORSDO>
F 11

>  <SCORE>
-5.485

>  <RMSD_LB>
12.540

>  <RMSD_UB>
14.905

$$$$
CHEMBL76961
 OpenBabel10172500243D

 23 23  0  0  0  0  0  0  0  0999 V2000
  146.2700  139.2080  154.9890 N   0  0  0  0  0  0  0  0  0  0  0  0
  145.4130  138.2450  154.4990 C   0  0  0  0  0  0  0  0  0  0  0  0
  145.7580  137.0920  154.2560 O   0  0  0  0  0  0  0  0  0  0  0  0
  145.9140  140.1000  155.2040 H   0  0  0  0  0  0  0  0  0  0  0  0
  147.6790  138.9420  155.1960 C   0  0  0  0  0  2  0  0  0  0  0  0
  148.5760  139.7790  154.2830 C   0  0  0  0  0  2  0  0  0  0  0  0
  148.3230  141.2800  154.4410 C   0  0  0  0  0  2  0  0  0  0  0  0
  147.9060  141.9220  153.1170 C   0  0  0  0  0  2  0  0  0  0  0  0
  146.4170  142.2670  153.1210 C   0  0  0  0  0  2  0  0  0  0  0  0
  145.7110  141.6990  151.8910 C   0  0  0  0  0  2  0  0  0  0  0  0
  146.7950  142.6480  149.8270 C   0  0  0  0  0  1  0  0  0  0  0  0
  145.6120  142.7400  150.7770 C   0  0  0  0  0  2  0  0  0  0  0  0
  143.9900  138.7320  154.2730 C   0  0  0  0  0  2  0  0  0  0  0  0
  143.3450  138.1160  153.0560 C   0  0  0  0  0  0  0  0  0  0  0  0
  141.9630  137.9090  153.0100 C   0  0  0  0  0  3  0  0  0  0  0  0
  141.3700  137.3440  151.8800 C   0  0  0  0  0  3  0  0  0  0  0  0
  142.1510  136.9800  150.7790 C   0  0  0  0  0  0  0  0  0  0  0  0
  143.5340  137.1860  150.7970 C   0  0  0  0  0  0  0  0  0  0  0  0
  144.1150  137.7590  151.9400 C   0  0  0  0  0  3  0  0  0  0  0  0
  141.5220  136.4270  149.6980 O   0  0  0  0  0  0  0  0  0  0  0  0
  141.9030  135.6900  149.2610 H   0  0  0  0  0  0  0  0  0  0  0  0
  144.4540  136.9010  149.8230 O   0  0  0  0  0  0  0  0  0  0  0  0
  145.8230  136.8300  150.1950 C   0  0  0  0  0  1  0  0  0  0  0  0
  1  5  1  0  0  0  0
  1  4  1  0  0  0  0
  2  1  1  0  0  0  0
  3  2  2  0  0  0  0
  6  7  1  0  0  0  0
  6  5  1  0  0  0  0
  8  9  1  0  0  0  0
  8  7  1  0  0  0  0
 10  9  1  0  0  0  0
 11 12  1  0  0  0  0
 12 10  1  0  0  0  0
 13  2  1  0  0  0  0
 14 13  1  0  0  0  0
 15 14  1  0  0  0  0
 16 15  2  0  0  0  0
 17 18  2  0  0  0  0
 17 16  1  0  0  0  0
 18 19  1  0  0  0  0
 19 14  2  0  0  0  0
 20 17  1  0  0  0  0
 21 20  1  0  0  0  0
 22 23  1  0  0  0  0
 22 18  1  0  0  0  0
M  END
>  <MODEL>
4

>  <REMARK>
 VINA RESULT:    -5.438      2.533      5.073
 INTER + INTRA:         -10.246
 INTER:                  -9.600
 INTRA:                  -0.646
 UNBOUND:                -1.469
  Name = CHEMBL76961
  13 active torsions:
  status: ('A' for Active; 'I' for Inactive)
    1  A    between atoms: C_1  and  C_2
    2  A    between atoms: C_2  and  C_3
    3  A    between atoms: C_3  and  C_4
    4  A    between atoms: C_4  and  C_5
    5  A    between atoms: C_5  and  C_6
    6  A    between atoms: C_6  and  C_7
    7  A    between atoms: C_7  and  C_8
    8  A    between atoms: C_8  and  N_9
    9  A    between atoms: C_10  and  C_12
   10  A    between atoms: C_12  and  C_13
   11  A    between atoms: C_16  and  O_17
   12  A    between atoms: C_18  and  O_19
   13  A    between atoms: O_19  and  C_20
                            x       y       z     vdW  Elec       q    Type
                         _______ _______ _______ _____ _____    ______ ____

>  <TORSDO>
F 11

>  <SCORE>
-5.438

>  <RMSD_LB>
2.533

>  <RMSD_UB>
5.073

$$$$
CHEMBL76961
 OpenBabel10172500243D

 23 23  0  0  0  0  0  0  0  0999 V2000
  135.2690  135.8900  152.6500 N   0  0  0  0  0  0  0  0  0  0  0  0
  135.1360  134.5810  152.2380 C   0  0  0  0  0  0  0  0  0  0  0  0
  136.0660  133.7800  152.2170 O   0  0  0  0  0  0  0  0  0  0  0  0
  134.4700  136.4640  152.6840 H   0  0  0  0  0  0  0  0  0  0  0  0
  136.5520  136.4440  153.0320 C   0  0  0  0  0  2  0  0  0  0  0  0
  136.8320  136.3040  154.5290 C   0  0  0  0  0  2  0  0  0  0  0  0
  137.8170  137.3600  155.0350 C   0  0  0  0  0  2  0  0  0  0  0  0
  138.2230  137.1010  156.4860 C   0  0  0  0  0  2  0  0  0  0  0  0
  137.2640  137.7940  157.4550 C   0  0  0  0  0  2  0  0  0  0  0  0
  136.9600  136.9090  158.6630 C   0  0  0  0  0  2  0  0  0  0  0  0
  135.9050  134.7190  159.3160 C   0  0  0  0  0  1  0  0  0  0  0  0
  136.6690  135.4700  158.2380 C   0  0  0  0  0  2  0  0  0  0  0  0
  133.7290  134.2040  151.8000 C   0  0  0  0  0  2  0  0  0  0  0  0
  133.6230  133.9540  150.3160 C   0  0  0  0  0  0  0  0  0  0  0  0
  134.0160  132.7280  149.7700 C   0  0  0  0  0  3  0  0  0  0  0  0
  133.9120  132.5000  148.3970 C   0  0  0  0  0  3  0  0  0  0  0  0
  133.4090  133.4940  147.5510 C   0  0  0  0  0  0  0  0  0  0  0  0
  133.0010  134.7250  148.0750 C   0  0  0  0  0  0  0  0  0  0  0  0
  133.1100  134.9380  149.4590 C   0  0  0  0  0  3  0  0  0  0  0  0
  133.3310  133.2220  146.2130 O   0  0  0  0  0  0  0  0  0  0  0  0
  132.8790  132.4550  145.9170 H   0  0  0  0  0  0  0  0  0  0  0  0
  132.4860  135.8080  147.4130 O   0  0  0  0  0  0  0  0  0  0  0  0
  133.3910  136.7960  146.9400 C   0  0  0  0  0  1  0  0  0  0  0  0
  1  4  1  0  0  0  0
  1  5  1  0  0  0  0
  2  1  1  0  0  0  0
  3  2  2  0  0  0  0
  5  6  1  0  0  0  0
  6  7  1  0  0  0  0
  7  8  1  0  0  0  0
  8  9  1  0  0  0  0
  9 10  1  0  0  0  0
 12 10  1  0  0  0  0
 12 11  1  0  0  0  0
 13  2  1  0  0  0  0
 14 13  1  0  0  0  0
 15 14  1  0  0  0  0
 16 15  2  0  0  0  0
 17 18  2  0  0  0  0
 17 16  1  0  0  0  0
 18 19  1  0  0  0  0
 19 14  2  0  0  0  0
 20 17  1  0  0  0  0
 21 20  1  0  0  0  0
 22 18  1  0  0  0  0
 23 22  1  0  0  0  0
M  END
>  <MODEL>
5

>  <REMARK>
 VINA RESULT:    -5.336     10.979     13.574
 INTER + INTRA:         -10.080
 INTER:                  -9.438
 INTRA:                  -0.642
 UNBOUND:                -1.469
  Name = CHEMBL76961
  13 active torsions:
  status: ('A' for Active; 'I' for Inactive)
    1  A    between atoms: C_1  and  C_2
    2  A    between atoms: C_2  and  C_3
    3  A    between atoms: C_3  and  C_4
    4  A    between atoms: C_4  and  C_5
    5  A    between atoms: C_5  and  C_6
    6  A    between atoms: C_6  and  C_7
    7  A    between atoms: C_7  and  C_8
    8  A    between atoms: C_8  and  N_9
    9  A    between atoms: C_10  and  C_12
   10  A    between atoms: C_12  and  C_13
   11  A    between atoms: C_16  and  O_17
   12  A    between atoms: C_18  and  O_19
   13  A    between atoms: O_19  and  C_20
                            x       y       z     vdW  Elec       q    Type
                         _______ _______ _______ _____ _____    ______ ____

>  <TORSDO>
F 11

>  <SCORE>
-5.336

>  <RMSD_LB>
10.979

>  <RMSD_UB>
13.574

$$$$
CHEMBL76961
 OpenBabel10172500243D

 23 23  0  0  0  0  0  0  0  0999 V2000
  146.2100  140.3710  148.5190 N   0  0  0  0  0  0  0  0  0  0  0  0
  145.7370  141.2460  149.4740 C   0  0  0  0  0  0  0  0  0  0  0  0
  144.6130  141.1710  149.9630 O   0  0  0  0  0  0  0  0  0  0  0  0
  147.1380  140.4630  148.2040 H   0  0  0  0  0  0  0  0  0  0  0  0
  145.3790  139.3210  147.9650 C   0  0  0  0  0  2  0  0  0  0  0  0
  145.5120  138.0020  148.7250 C   0  0  0  0  0  2  0  0  0  0  0  0
  146.8150  137.9220  149.5230 C   0  0  0  0  0  2  0  0  0  0  0  0
  146.5540  137.9370  151.0300 C   0  0  0  0  0  2  0  0  0  0  0  0
  147.1710  136.7110  151.7040 C   0  0  0  0  0  2  0  0  0  0  0  0
  148.5630  137.0210  152.2540 C   0  0  0  0  0  2  0  0  0  0  0  0
  148.4100  137.9300  154.5970 C   0  0  0  0  0  1  0  0  0  0  0  0
  148.5500  138.2780  153.1240 C   0  0  0  0  0  2  0  0  0  0  0  0
  146.7270  142.3280  149.8750 C   0  0  0  0  0  2  0  0  0  0  0  0
  147.3170  142.1050  151.2450 C   0  0  0  0  0  0  0  0  0  0  0  0
  148.6960  142.2100  151.4530 C   0  0  0  0  0  3  0  0  0  0  0  0
  149.2370  142.0090  152.7240 C   0  0  0  0  0  3  0  0  0  0  0  0
  148.4040  141.7020  153.8060 C   0  0  0  0  0  0  0  0  0  0  0  0
  147.0210  141.6020  153.6250 C   0  0  0  0  0  0  0  0  0  0  0  0
  146.4930  141.8110  152.3410 C   0  0  0  0  0  3  0  0  0  0  0  0
  148.9840  141.5110  155.0300 O   0  0  0  0  0  0  0  0  0  0  0  0
  148.5010  141.6960  155.8120 H   0  0  0  0  0  0  0  0  0  0  0  0
  146.0560  141.3160  154.5540 O   0  0  0  0  0  0  0  0  0  0  0  0
  145.3510  140.0890  154.4320 C   0  0  0  0  0  1  0  0  0  0  0  0
  1  2  1  0  0  0  0
  2 13  1  0  0  0  0
  2  3  2  0  0  0  0
  4  1  1  0  0  0  0
  5  1  1  0  0  0  0
  5  6  1  0  0  0  0
  6  7  1  0  0  0  0
  7  8  1  0  0  0  0
  8  9  1  0  0  0  0
  9 10  1  0  0  0  0
 10 12  1  0  0  0  0
 12 11  1  0  0  0  0
 13 14  1  0  0  0  0
 14 15  2  0  0  0  0
 14 19  1  0  0  0  0
 15 16  1  0  0  0  0
 16 17  2  0  0  0  0
 17 20  1  0  0  0  0
 18 17  1  0  0  0  0
 18 22  1  0  0  0  0
 19 18  2  0  0  0  0
 20 21  1  0  0  0  0
 23 22  1  0  0  0  0
M  END
>  <MODEL>
6

>  <REMARK>
 VINA RESULT:    -5.275      2.034      4.563
 INTER + INTRA:          -9.983
 INTER:                  -8.743
 INTRA:                  -1.240
 UNBOUND:                -1.469
  Name = CHEMBL76961
  13 active torsions:
  status: ('A' for Active; 'I' for Inactive)
    1  A    between atoms: C_1  and  C_2
    2  A    between atoms: C_2  and  C_3
    3  A    between atoms: C_3  and  C_4
    4  A    between atoms: C_4  and  C_5
    5  A    between atoms: C_5  and  C_6
    6  A    between atoms: C_6  and  C_7
    7  A    between atoms: C_7  and  C_8
    8  A    between atoms: C_8  and  N_9
    9  A    between atoms: C_10  and  C_12
   10  A    between atoms: C_12  and  C_13
   11  A    between atoms: C_16  and  O_17
   12  A    between atoms: C_18  and  O_19
   13  A    between atoms: O_19  and  C_20
                            x       y       z     vdW  Elec       q    Type
                         _______ _______ _______ _____ _____    ______ ____

>  <TORSDO>
F 11

>  <SCORE>
-5.275

>  <RMSD_LB>
2.034

>  <RMSD_UB>
4.563

$$$$
CHEMBL76961
 OpenBabel10172500243D

 23 23  0  0  0  0  0  0  0  0999 V2000
  145.6560  139.5170  150.1890 N   0  0  0  0  0  0  0  0  0  0  0  0
  144.4860  138.8420  149.9110 C   0  0  0  0  0  0  0  0  0  0  0  0
  143.7330  139.1440  148.9890 O   0  0  0  0  0  0  0  0  0  0  0  0
  146.2350  139.1920  150.9150 H   0  0  0  0  0  0  0  0  0  0  0  0
  146.0560  140.6920  149.4410 C   0  0  0  0  0  2  0  0  0  0  0  0
  146.3640  141.8880  150.3420 C   0  0  0  0  0  2  0  0  0  0  0  0
  145.3960  141.9860  151.5240 C   0  0  0  0  0  2  0  0  0  0  0  0
  146.1290  142.3070  152.8260 C   0  0  0  0  0  2  0  0  0  0  0  0
  146.5330  141.0260  153.5570 C   0  0  0  0  0  2  0  0  0  0  0  0
  147.9950  140.6700  153.2890 C   0  0  0  0  0  2  0  0  0  0  0  0
  149.6530  142.2870  152.3030 C   0  0  0  0  0  1  0  0  0  0  0  0
  148.9150  141.8600  153.5610 C   0  0  0  0  0  2  0  0  0  0  0  0
  144.1960  137.6840  150.8520 C   0  0  0  0  0  2  0  0  0  0  0  0
  143.3320  138.0820  152.0240 C   0  0  0  0  0  0  0  0  0  0  0  0
  143.8750  138.7820  153.1050 C   0  0  0  0  0  3  0  0  0  0  0  0
  143.0710  139.1520  154.1840 C   0  0  0  0  0  3  0  0  0  0  0  0
  141.7100  138.8300  154.1940 C   0  0  0  0  0  0  0  0  0  0  0  0
  141.1410  138.1390  153.1190 C   0  0  0  0  0  0  0  0  0  0  0  0
  141.9630  137.7760  152.0400 C   0  0  0  0  0  3  0  0  0  0  0  0
  140.9660  139.2130  155.2760 O   0  0  0  0  0  0  0  0  0  0  0  0
  140.1570  138.7780  155.4660 H   0  0  0  0  0  0  0  0  0  0  0  0
  139.8410  137.7420  152.9500 O   0  0  0  0  0  0  0  0  0  0  0  0
  139.1980  138.0590  151.7240 C   0  0  0  0  0  1  0  0  0  0  0  0
  1  4  1  0  0  0  0
  2  1  1  0  0  0  0
  2 13  1  0  0  0  0
  3  2  2  0  0  0  0
  5  1  1  0  0  0  0
  5  6  1  0  0  0  0
  6  7  1  0  0  0  0
  7  8  1  0  0  0  0
  8  9  1  0  0  0  0
 10  9  1  0  0  0  0
 10 12  1  0  0  0  0
 11 12  1  0  0  0  0
 13 14  1  0  0  0  0
 14 19  2  0  0  0  0
 14 15  1  0  0  0  0
 15 16  2  0  0  0  0
 16 17  1  0  0  0  0
 17 20  1  0  0  0  0
 18 17  2  0  0  0  0
 19 18  1  0  0  0  0
 20 21  1  0  0  0  0
 22 18  1  0  0  0  0
 23 22  1  0  0  0  0
M  END
>  <MODEL>
7

>  <REMARK>
 VINA RESULT:    -5.199      3.128      6.015
 INTER + INTRA:          -9.859
 INTER:                  -8.542
 INTRA:                  -1.317
 UNBOUND:                -1.469
  Name = CHEMBL76961
  13 active torsions:
  status: ('A' for Active; 'I' for Inactive)
    1  A    between atoms: C_1  and  C_2
    2  A    between atoms: C_2  and  C_3
    3  A    between atoms: C_3  and  C_4
    4  A    between atoms: C_4  and  C_5
    5  A    between atoms: C_5  and  C_6
    6  A    between atoms: C_6  and  C_7
    7  A    between atoms: C_7  and  C_8
    8  A    between atoms: C_8  and  N_9
    9  A    between atoms: C_10  and  C_12
   10  A    between atoms: C_12  and  C_13
   11  A    between atoms: C_16  and  O_17
   12  A    between atoms: C_18  and  O_19
   13  A    between atoms: O_19  and  C_20
                            x       y       z     vdW  Elec       q    Type
                         _______ _______ _______ _____ _____    ______ ____

>  <TORSDO>
F 11

>  <SCORE>
-5.199

>  <RMSD_LB>
3.128

>  <RMSD_UB>
6.015

$$$$
CHEMBL76961
 OpenBabel10172500243D

 23 23  0  0  0  0  0  0  0  0999 V2000
  146.2740  138.4230  153.1390 N   0  0  0  0  0  0  0  0  0  0  0  0
  146.0580  137.0720  152.9650 C   0  0  0  0  0  0  0  0  0  0  0  0
  145.8590  136.2930  153.8940 O   0  0  0  0  0  0  0  0  0  0  0  0
  146.3820  138.9960  152.3470 H   0  0  0  0  0  0  0  0  0  0  0  0
  146.3470  139.0210  154.4570 C   0  0  0  0  0  2  0  0  0  0  0  0
  147.7850  139.2760  154.9090 C   0  0  0  0  0  2  0  0  0  0  0  0
  148.5160  140.2550  153.9880 C   0  0  0  0  0  2  0  0  0  0  0  0
  147.8970  141.6520  154.0480 C   0  0  0  0  0  2  0  0  0  0  0  0
  147.4690  142.1210  152.6570 C   0  0  0  0  0  2  0  0  0  0  0  0
  145.9530  142.2920  152.5700 C   0  0  0  0  0  2  0  0  0  0  0  0
  144.4790  140.8100  151.1660 C   0  0  0  0  0  1  0  0  0  0  0  0
  145.4400  141.9880  151.1630 C   0  0  0  0  0  2  0  0  0  0  0  0
  146.0940  136.6160  151.5150 C   0  0  0  0  0  2  0  0  0  0  0  0
  144.7220  136.5330  150.8920 C   0  0  0  0  0  0  0  0  0  0  0  0
  144.5310  135.8710  149.6750 C   0  0  0  0  0  3  0  0  0  0  0  0
  143.2600  135.7920  149.1050 C   0  0  0  0  0  3  0  0  0  0  0  0
  142.1600  136.3720  149.7470 C   0  0  0  0  0  0  0  0  0  0  0  0
  142.3240  137.0310  150.9700 C   0  0  0  0  0  0  0  0  0  0  0  0
  143.6100  137.0990  151.5310 C   0  0  0  0  0  3  0  0  0  0  0  0
  140.9360  136.2690  149.1450 O   0  0  0  0  0  0  0  0  0  0  0  0
  140.2400  135.8110  149.5740 H   0  0  0  0  0  0  0  0  0  0  0  0
  141.3770  137.6510  151.7410 O   0  0  0  0  0  0  0  0  0  0  0  0
  141.0620  139.0060  151.4540 C   0  0  0  0  0  1  0  0  0  0  0  0
  1  5  1  0  0  0  0
  2  1  1  0  0  0  0
  2  3  2  0  0  0  0
  4  1  1  0  0  0  0
  5  6  1  0  0  0  0
  7  8  1  0  0  0  0
  7  6  1  0  0  0  0
  9  8  1  0  0  0  0
 10  9  1  0  0  0  0
 12 11  1  0  0  0  0
 12 10  1  0  0  0  0
 13  2  1  0  0  0  0
 14 13  1  0  0  0  0
 14 19  1  0  0  0  0
 15 14  2  0  0  0  0
 16 15  1  0  0  0  0
 16 17  2  0  0  0  0
 17 18  1  0  0  0  0
 18 19  2  0  0  0  0
 18 22  1  0  0  0  0
 20 21  1  0  0  0  0
 20 17  1  0  0  0  0
 23 22  1  0  0  0  0
M  END
>  <MODEL>
8

>  <REMARK>
 VINA RESULT:    -5.169      2.802      5.292
 INTER + INTRA:          -9.811
 INTER:                  -8.772
 INTRA:                  -1.039
 UNBOUND:                -1.469
  Name = CHEMBL76961
  13 active torsions:
  status: ('A' for Active; 'I' for Inactive)
    1  A    between atoms: C_1  and  C_2
    2  A    between atoms: C_2  and  C_3
    3  A    between atoms: C_3  and  C_4
    4  A    between atoms: C_4  and  C_5
    5  A    between atoms: C_5  and  C_6
    6  A    between atoms: C_6  and  C_7
    7  A    between atoms: C_7  and  C_8
    8  A    between atoms: C_8  and  N_9
    9  A    between atoms: C_10  and  C_12
   10  A    between atoms: C_12  and  C_13
   11  A    between atoms: C_16  and  O_17
   12  A    between atoms: C_18  and  O_19
   13  A    between atoms: O_19  and  C_20
                            x       y       z     vdW  Elec       q    Type
                         _______ _______ _______ _____ _____    ______ ____

>  <TORSDO>
F 11

>  <SCORE>
-5.169

>  <RMSD_LB>
2.802

>  <RMSD_UB>
5.292

$$$$
CHEMBL76961
 OpenBabel10172500243D

 23 23  0  0  0  0  0  0  0  0999 V2000
  146.1130  139.8000  153.4750 N   0  0  0  0  0  0  0  0  0  0  0  0
  145.0710  139.0340  153.9540 C   0  0  0  0  0  0  0  0  0  0  0  0
  144.0380  139.5100  154.4160 O   0  0  0  0  0  0  0  0  0  0  0  0
  146.8940  139.3510  153.0770 H   0  0  0  0  0  0  0  0  0  0  0  0
  146.0910  141.2470  153.5430 C   0  0  0  0  0  2  0  0  0  0  0  0
  147.4580  141.8710  153.2590 C   0  0  0  0  0  2  0  0  0  0  0  0
  147.8650  141.7280  151.7910 C   0  0  0  0  0  2  0  0  0  0  0  0
  146.8390  142.3720  150.8570 C   0  0  0  0  0  2  0  0  0  0  0  0
  146.6200  141.5160  149.6090 C   0  0  0  0  0  2  0  0  0  0  0  0
  146.6250  140.0270  149.9490 C   0  0  0  0  0  2  0  0  0  0  0  0
  147.0650  138.9150  147.7340 C   0  0  0  0  0  1  0  0  0  0  0  0
  146.0320  139.1960  148.8130 C   0  0  0  0  0  2  0  0  0  0  0  0
  145.3090  137.5340  153.8700 C   0  0  0  0  0  2  0  0  0  0  0  0
  145.1670  136.9950  152.4680 C   0  0  0  0  0  0  0  0  0  0  0  0
  146.2350  136.3440  151.8430 C   0  0  0  0  0  3  0  0  0  0  0  0
  146.0970  135.8430  150.5480 C   0  0  0  0  0  3  0  0  0  0  0  0
  144.8860  135.9830  149.8610 C   0  0  0  0  0  0  0  0  0  0  0  0
  143.8010  136.6210  150.4690 C   0  0  0  0  0  0  0  0  0  0  0  0
  143.9550  137.1180  151.7730 C   0  0  0  0  0  3  0  0  0  0  0  0
  144.8040  135.4770  148.5930 O   0  0  0  0  0  0  0  0  0  0  0  0
  145.0820  135.9950  147.8630 H   0  0  0  0  0  0  0  0  0  0  0  0
  142.5490  136.8490  149.9610 O   0  0  0  0  0  0  0  0  0  0  0  0
  141.5190  137.2280  150.8630 C   0  0  0  0  0  1  0  0  0  0  0  0
  1  5  1  0  0  0  0
  1  2  1  0  0  0  0
  2  3  2  0  0  0  0
  4  1  1  0  0  0  0
  6  5  1  0  0  0  0
  7  6  1  0  0  0  0
  8  7  1  0  0  0  0
  9 10  1  0  0  0  0
  9  8  1  0  0  0  0
 11 12  1  0  0  0  0
 12 10  1  0  0  0  0
 13  2  1  0  0  0  0
 14 13  1  0  0  0  0
 15 14  1  0  0  0  0
 16 15  2  0  0  0  0
 17 18  2  0  0  0  0
 17 16  1  0  0  0  0
 18 19  1  0  0  0  0
 19 14  2  0  0  0  0
 20 17  1  0  0  0  0
 21 20  1  0  0  0  0
 22 18  1  0  0  0  0
 22 23  1  0  0  0  0
M  END
>  <MODEL>
9

>  <REMARK>
 VINA RESULT:    -5.031      2.458      4.826
 INTER + INTRA:          -9.588
 INTER:                  -8.119
 INTRA:                  -1.469
 UNBOUND:                -1.469
  Name = CHEMBL76961
  13 active torsions:
  status: ('A' for Active; 'I' for Inactive)
    1  A    between atoms: C_1  and  C_2
    2  A    between atoms: C_2  and  C_3
    3  A    between atoms: C_3  and  C_4
    4  A    between atoms: C_4  and  C_5
    5  A    between atoms: C_5  and  C_6
    6  A    between atoms: C_6  and  C_7
    7  A    between atoms: C_7  and  C_8
    8  A    between atoms: C_8  and  N_9
    9  A    between atoms: C_10  and  C_12
   10  A    between atoms: C_12  and  C_13
   11  A    between atoms: C_16  and  O_17
   12  A    between atoms: C_18  and  O_19
   13  A    between atoms: O_19  and  C_20
                            x       y       z     vdW  Elec       q    Type
                         _______ _______ _______ _____ _____    ______ ____

>  <TORSDO>
F 11

>  <SCORE>
-5.031

>  <RMSD_LB>
2.458

>  <RMSD_UB>
4.826

$$$$
