CHEMBL4798435
 OpenBabel10172500463D

 23 24  0  0  0  0  0  0  0  0999 V2000
  143.0120  139.6210  153.2270 N   0  0  0  0  0  0  0  0  0  0  0  0
  142.1150  138.5970  153.0040 C   0  0  0  0  0  0  0  0  0  0  0  0
  142.1550  137.9030  151.9910 O   0  0  0  0  0  0  0  0  0  0  0  0
  142.9470  140.1200  154.0720 H   0  0  0  0  0  0  0  0  0  0  0  0
  141.1190  138.3990  154.0520 C   0  0  0  0  0  0  0  0  0  0  0  0
  141.3300  137.8750  155.3180 C   0  0  0  0  0  3  0  0  0  0  0  0
  140.1280  137.7990  156.0890 C   0  0  0  0  0  3  0  0  0  0  0  0
  139.0470  138.2680  155.3770 C   0  0  0  0  0  0  0  0  0  0  0  0
  139.4640  138.7960  153.8190 S   0  0  0  0  0  0  0  0  0  0  0  0
  137.6800  138.3360  155.8250 N   0  0  0  0  0  0  0  0  0  0  0  0
  137.3200  137.4540  156.6170 O   0  0  0  0  0  0  0  0  0  0  0  0
  136.9670  139.2520  155.3960 O   0  0  0  0  0  0  0  0  0  0  0  0
  144.0420  139.9990  152.2880 C   0  0  0  0  0  2  0  0  0  0  0  0
  147.1660  139.8150  154.4820 C   0  0  0  0  0  0  0  0  0  0  0  0
  145.9510  139.4960  153.8670 C   0  0  0  0  0  3  0  0  0  0  0  0
  145.3300  140.3850  152.9720 C   0  0  0  0  0  0  0  0  0  0  0  0
  145.9540  141.6080  152.6920 C   0  0  0  0  0  3  0  0  0  0  0  0
  147.1690  141.9390  153.2960 C   0  0  0  0  0  3  0  0  0  0  0  0
  147.7660  141.0460  154.1860 C   0  0  0  0  0  0  0  0  0  0  0  0
  148.2430  137.7300  154.8850 C   0  0  0  0  0  1  0  0  0  0  0  0
  147.8350  139.0040  155.3610 O   0  0  0  0  0  0  0  0  0  0  0  0
  148.9580  141.3690  154.7770 O   0  0  0  0  0  0  0  0  0  0  0  0
  149.0630  142.1990  155.1970 H   0  0  0  0  0  0  0  0  0  0  0  0
  1  4  1  0  0  0  0
  2  1  1  0  0  0  0
  2  5  1  0  0  0  0
  3  2  2  0  0  0  0
  5  6  2  0  0  0  0
  6  7  1  0  0  0  0
  8 10  1  0  0  0  0
  8  7  2  0  0  0  0
  9  5  1  0  0  0  0
  9  8  1  0  0  0  0
 10 11  2  0  0  0  0
 12 10  2  0  0  0  0
 13 16  1  0  0  0  0
 13  1  1  0  0  0  0
 14 21  1  0  0  0  0
 15 14  2  0  0  0  0
 16 15  1  0  0  0  0
 17 16  2  0  0  0  0
 17 18  1  0  0  0  0
 18 19  2  0  0  0  0
 19 14  1  0  0  0  0
 19 22  1  0  0  0  0
 20 21  1  0  0  0  0
 22 23  1  0  0  0  0
M  END
>  <MODEL>
1

>  <REMARK>
 VINA RESULT:    -7.060      0.000      0.000
 INTER + INTRA:          -9.672
 INTER:                  -9.269
 INTRA:                  -0.403
 UNBOUND:                -0.341
  Name = CHEMBL4798435
  7 active torsions:
  status: ('A' for Active; 'I' for Inactive)
    1  A    between atoms: C_1  and  O_2
    2  A    between atoms: O_2  and  C_3
    3  A    between atoms: C_5  and  C_6
    4  A    between atoms: C_6  and  N_7
    5  A    between atoms: C_8  and  C_10
    6  A    between atoms: C_13  and  N_14
    7  A    between atoms: C_20  and  O_21
                            x       y       z     vdW  Elec       q    Type
                         _______ _______ _______ _____ _____    ______ ____

>  <TORSDO>
F 6

>  <SCORE>
-7.060

>  <RMSD_LB>
0.000

>  <RMSD_UB>
0.000

$$$$
CHEMBL4798435
 OpenBabel10172500463D

 23 24  0  0  0  0  0  0  0  0999 V2000
  134.4520  135.5070  153.9550 N   0  0  0  0  0  0  0  0  0  0  0  0
  134.1620  134.3070  153.3390 C   0  0  0  0  0  0  0  0  0  0  0  0
  134.2290  133.2350  153.9340 O   0  0  0  0  0  0  0  0  0  0  0  0
  134.3480  136.3350  153.4320 H   0  0  0  0  0  0  0  0  0  0  0  0
  133.7700  134.4030  151.9360 C   0  0  0  0  0  0  0  0  0  0  0  0
  133.5590  133.3550  151.0530 C   0  0  0  0  0  3  0  0  0  0  0  0
  133.2060  133.8030  149.7420 C   0  0  0  0  0  3  0  0  0  0  0  0
  133.1640  135.1780  149.6790 C   0  0  0  0  0  0  0  0  0  0  0  0
  133.5320  135.9170  151.1610 S   0  0  0  0  0  0  0  0  0  0  0  0
  132.8540  135.9810  148.5240 N   0  0  0  0  0  0  0  0  0  0  0  0
  132.7340  135.3730  147.4510 O   0  0  0  0  0  0  0  0  0  0  0  0
  132.7320  137.2030  148.6750 O   0  0  0  0  0  0  0  0  0  0  0  0
  134.8980  135.6150  155.3240 C   0  0  0  0  0  2  0  0  0  0  0  0
  137.7910  137.5700  156.8770 C   0  0  0  0  0  0  0  0  0  0  0  0
  136.6080  136.8410  156.7260 C   0  0  0  0  0  3  0  0  0  0  0  0
  136.1550  136.4380  155.4560 C   0  0  0  0  0  0  0  0  0  0  0  0
  136.9180  136.7720  154.3290 C   0  0  0  0  0  3  0  0  0  0  0  0
  138.1040  137.4970  154.4660 C   0  0  0  0  0  3  0  0  0  0  0  0
  138.5320  137.8920  155.7330 C   0  0  0  0  0  0  0  0  0  0  0  0
  137.4360  137.9450  159.2020 C   0  0  0  0  0  1  0  0  0  0  0  0
  138.3010  137.9950  158.0750 O   0  0  0  0  0  0  0  0  0  0  0  0
  139.6970  138.6010  155.8670 O   0  0  0  0  0  0  0  0  0  0  0  0
  140.3690  138.5250  155.2190 H   0  0  0  0  0  0  0  0  0  0  0  0
  1 13  1  0  0  0  0
  2  3  2  0  0  0  0
  2  1  1  0  0  0  0
  4  1  1  0  0  0  0
  5  2  1  0  0  0  0
  6  5  2  0  0  0  0
  7  6  1  0  0  0  0
  8  7  2  0  0  0  0
  8  9  1  0  0  0  0
  9  5  1  0  0  0  0
 10 12  2  0  0  0  0
 10  8  1  0  0  0  0
 11 10  2  0  0  0  0
 13 16  1  0  0  0  0
 14 21  1  0  0  0  0
 15 14  1  0  0  0  0
 16 15  2  0  0  0  0
 17 18  2  0  0  0  0
 17 16  1  0  0  0  0
 18 19  1  0  0  0  0
 19 22  1  0  0  0  0
 19 14  2  0  0  0  0
 21 20  1  0  0  0  0
 23 22  1  0  0  0  0
M  END
>  <MODEL>
2

>  <REMARK>
 VINA RESULT:    -6.980      6.945      9.714
 INTER + INTRA:          -9.566
 INTER:                  -9.152
 INTRA:                  -0.414
 UNBOUND:                -0.341
  Name = CHEMBL4798435
  7 active torsions:
  status: ('A' for Active; 'I' for Inactive)
    1  A    between atoms: C_1  and  O_2
    2  A    between atoms: O_2  and  C_3
    3  A    between atoms: C_5  and  C_6
    4  A    between atoms: C_6  and  N_7
    5  A    between atoms: C_8  and  C_10
    6  A    between atoms: C_13  and  N_14
    7  A    between atoms: C_20  and  O_21
                            x       y       z     vdW  Elec       q    Type
                         _______ _______ _______ _____ _____    ______ ____

>  <TORSDO>
F 6

>  <SCORE>
-6.980

>  <RMSD_LB>
6.945

>  <RMSD_UB>
9.714

$$$$
CHEMBL4798435
 OpenBabel10172500463D

 23 24  0  0  0  0  0  0  0  0999 V2000
  135.1590  135.3540  153.9800 N   0  0  0  0  0  0  0  0  0  0  0  0
  134.4360  134.2890  153.4860 C   0  0  0  0  0  0  0  0  0  0  0  0
  134.1820  133.2990  154.1670 O   0  0  0  0  0  0  0  0  0  0  0  0
  135.3020  136.1310  153.3930 H   0  0  0  0  0  0  0  0  0  0  0  0
  133.9960  134.4210  152.1000 C   0  0  0  0  0  0  0  0  0  0  0  0
  133.6860  133.3960  151.2190 C   0  0  0  0  0  3  0  0  0  0  0  0
  133.3090  133.8760  149.9260 C   0  0  0  0  0  3  0  0  0  0  0  0
  133.3490  135.2510  149.8730 C   0  0  0  0  0  0  0  0  0  0  0  0
  133.8200  135.9530  151.3450 S   0  0  0  0  0  0  0  0  0  0  0  0
  133.0440  136.0820  148.7370 N   0  0  0  0  0  0  0  0  0  0  0  0
  133.4490  135.6760  147.6380 O   0  0  0  0  0  0  0  0  0  0  0  0
  132.4110  137.1280  148.9290 O   0  0  0  0  0  0  0  0  0  0  0  0
  135.7160  135.3910  155.3120 C   0  0  0  0  0  2  0  0  0  0  0  0
  138.4490  137.8940  154.3810 C   0  0  0  0  0  0  0  0  0  0  0  0
  137.3210  137.0710  154.3150 C   0  0  0  0  0  3  0  0  0  0  0  0
  136.9620  136.2380  155.3900 C   0  0  0  0  0  0  0  0  0  0  0  0
  137.7530  136.2480  156.5470 C   0  0  0  0  0  3  0  0  0  0  0  0
  138.8800  137.0680  156.6280 C   0  0  0  0  0  3  0  0  0  0  0  0
  139.2230  137.8830  155.5490 C   0  0  0  0  0  0  0  0  0  0  0  0
  139.3910  138.1350  152.2060 C   0  0  0  0  0  1  0  0  0  0  0  0
  138.8640  138.7350  153.3810 O   0  0  0  0  0  0  0  0  0  0  0  0
  140.3270  138.6890  155.6280 O   0  0  0  0  0  0  0  0  0  0  0  0
  140.2270  139.6200  155.6450 H   0  0  0  0  0  0  0  0  0  0  0  0
  1 13  1  0  0  0  0
  2  1  1  0  0  0  0
  2  3  2  0  0  0  0
  4  1  1  0  0  0  0
  5  2  1  0  0  0  0
  6  5  2  0  0  0  0
  7  6  1  0  0  0  0
  8  7  2  0  0  0  0
  8  9  1  0  0  0  0
  9  5  1  0  0  0  0
 10 12  2  0  0  0  0
 10  8  1  0  0  0  0
 11 10  2  0  0  0  0
 13 16  1  0  0  0  0
 14 19  1  0  0  0  0
 15 14  2  0  0  0  0
 15 16  1  0  0  0  0
 16 17  2  0  0  0  0
 17 18  1  0  0  0  0
 19 22  1  0  0  0  0
 19 18  2  0  0  0  0
 20 21  1  0  0  0  0
 21 14  1  0  0  0  0
 22 23  1  0  0  0  0
M  END
>  <MODEL>
3

>  <REMARK>
 VINA RESULT:    -6.956      6.229      9.203
 INTER + INTRA:          -9.535
 INTER:                  -9.080
 INTRA:                  -0.455
 UNBOUND:                -0.341
  Name = CHEMBL4798435
  7 active torsions:
  status: ('A' for Active; 'I' for Inactive)
    1  A    between atoms: C_1  and  O_2
    2  A    between atoms: O_2  and  C_3
    3  A    between atoms: C_5  and  C_6
    4  A    between atoms: C_6  and  N_7
    5  A    between atoms: C_8  and  C_10
    6  A    between atoms: C_13  and  N_14
    7  A    between atoms: C_20  and  O_21
                            x       y       z     vdW  Elec       q    Type
                         _______ _______ _______ _____ _____    ______ ____

>  <TORSDO>
F 6

>  <SCORE>
-6.956

>  <RMSD_LB>
6.229

>  <RMSD_UB>
9.203

$$$$
CHEMBL4798435
 OpenBabel10172500463D

 23 24  0  0  0  0  0  0  0  0999 V2000
  134.8970  134.9860  155.1320 N   0  0  0  0  0  0  0  0  0  0  0  0
  134.5910  134.0320  154.1830 C   0  0  0  0  0  0  0  0  0  0  0  0
  134.2010  132.9090  154.4890 O   0  0  0  0  0  0  0  0  0  0  0  0
  135.1740  135.8780  154.8220 H   0  0  0  0  0  0  0  0  0  0  0  0
  134.7630  134.4520  152.7960 C   0  0  0  0  0  0  0  0  0  0  0  0
  135.8140  134.1320  151.9490 C   0  0  0  0  0  3  0  0  0  0  0  0
  135.6810  134.7300  150.6570 C   0  0  0  0  0  3  0  0  0  0  0  0
  134.5330  135.4860  150.5720 C   0  0  0  0  0  0  0  0  0  0  0  0
  133.6280  135.4720  152.0080 S   0  0  0  0  0  0  0  0  0  0  0  0
  134.0760  136.2380  149.4330 N   0  0  0  0  0  0  0  0  0  0  0  0
  132.9820  136.8080  149.5560 O   0  0  0  0  0  0  0  0  0  0  0  0
  134.7900  136.2640  148.4220 O   0  0  0  0  0  0  0  0  0  0  0  0
  134.8310  134.7470  156.5540 C   0  0  0  0  0  2  0  0  0  0  0  0
  137.3460  137.5060  157.3710 C   0  0  0  0  0  0  0  0  0  0  0  0
  136.5570  136.5910  156.6670 C   0  0  0  0  0  3  0  0  0  0  0  0
  135.7050  135.6940  157.3380 C   0  0  0  0  0  0  0  0  0  0  0  0
  135.6490  135.7340  158.7370 C   0  0  0  0  0  3  0  0  0  0  0  0
  136.4290  136.6450  159.4520 C   0  0  0  0  0  3  0  0  0  0  0  0
  137.2720  137.5220  158.7690 C   0  0  0  0  0  0  0  0  0  0  0  0
  138.9950  137.9540  155.7110 C   0  0  0  0  0  1  0  0  0  0  0  0
  138.1960  138.4120  156.7930 O   0  0  0  0  0  0  0  0  0  0  0  0
  138.0350  138.4170  159.4700 O   0  0  0  0  0  0  0  0  0  0  0  0
  137.8630  139.3350  159.4000 H   0  0  0  0  0  0  0  0  0  0  0  0
  1 13  1  0  0  0  0
  2  3  2  0  0  0  0
  2  1  1  0  0  0  0
  4  1  1  0  0  0  0
  5  2  1  0  0  0  0
  6  5  2  0  0  0  0
  7  6  1  0  0  0  0
  8  7  2  0  0  0  0
  8  9  1  0  0  0  0
  9  5  1  0  0  0  0
 10 11  2  0  0  0  0
 10  8  1  0  0  0  0
 12 10  2  0  0  0  0
 13 16  1  0  0  0  0
 14 19  1  0  0  0  0
 15 16  1  0  0  0  0
 15 14  2  0  0  0  0
 16 17  2  0  0  0  0
 17 18  1  0  0  0  0
 19 18  2  0  0  0  0
 19 22  1  0  0  0  0
 20 21  1  0  0  0  0
 21 14  1  0  0  0  0
 23 22  1  0  0  0  0
M  END
>  <MODEL>
4

>  <REMARK>
 VINA RESULT:    -6.870      6.953      9.852
 INTER + INTRA:          -9.420
 INTER:                  -9.001
 INTRA:                  -0.419
 UNBOUND:                -0.341
  Name = CHEMBL4798435
  7 active torsions:
  status: ('A' for Active; 'I' for Inactive)
    1  A    between atoms: C_1  and  O_2
    2  A    between atoms: O_2  and  C_3
    3  A    between atoms: C_5  and  C_6
    4  A    between atoms: C_6  and  N_7
    5  A    between atoms: C_8  and  C_10
    6  A    between atoms: C_13  and  N_14
    7  A    between atoms: C_20  and  O_21
                            x       y       z     vdW  Elec       q    Type
                         _______ _______ _______ _____ _____    ______ ____

>  <TORSDO>
F 6

>  <SCORE>
-6.870

>  <RMSD_LB>
6.953

>  <RMSD_UB>
9.852

$$$$
CHEMBL4798435
 OpenBabel10172500463D

 23 24  0  0  0  0  0  0  0  0999 V2000
  144.0320  138.3800  151.9030 N   0  0  0  0  0  0  0  0  0  0  0  0
  144.2840  139.6100  151.3320 C   0  0  0  0  0  0  0  0  0  0  0  0
  143.6630  140.0140  150.3530 O   0  0  0  0  0  0  0  0  0  0  0  0
  144.5430  138.1270  152.7050 H   0  0  0  0  0  0  0  0  0  0  0  0
  145.3370  140.3930  151.9710 C   0  0  0  0  0  0  0  0  0  0  0  0
  145.4400  141.7750  152.0180 C   0  0  0  0  0  3  0  0  0  0  0  0
  146.6120  142.2150  152.7080 C   0  0  0  0  0  3  0  0  0  0  0  0
  147.3580  141.1490  153.1580 C   0  0  0  0  0  0  0  0  0  0  0  0
  146.6640  139.6500  152.7700 S   0  0  0  0  0  0  0  0  0  0  0  0
  148.6010  141.2070  153.8830 N   0  0  0  0  0  0  0  0  0  0  0  0
  149.3880  142.1040  153.5490 O   0  0  0  0  0  0  0  0  0  0  0  0
  148.8000  140.3720  154.7750 O   0  0  0  0  0  0  0  0  0  0  0  0
  143.0600  137.4440  151.3890 C   0  0  0  0  0  2  0  0  0  0  0  0
  140.3340  138.2650  153.9370 C   0  0  0  0  0  0  0  0  0  0  0  0
  141.5840  138.0500  153.3500 C   0  0  0  0  0  3  0  0  0  0  0  0
  141.6990  137.6270  152.0130 C   0  0  0  0  0  0  0  0  0  0  0  0
  140.5320  137.4290  151.2640 C   0  0  0  0  0  3  0  0  0  0  0  0
  139.2770  137.6440  151.8370 C   0  0  0  0  0  3  0  0  0  0  0  0
  139.1840  138.0570  153.1650 C   0  0  0  0  0  0  0  0  0  0  0  0
  140.2950  137.7080  156.2520 C   0  0  0  0  0  1  0  0  0  0  0  0
  140.1370  138.6800  155.2280 O   0  0  0  0  0  0  0  0  0  0  0  0
  137.9530  138.2700  153.7270 O   0  0  0  0  0  0  0  0  0  0  0  0
  137.8360  138.9570  154.3530 H   0  0  0  0  0  0  0  0  0  0  0  0
  1  4  1  0  0  0  0
  2  1  1  0  0  0  0
  2  5  1  0  0  0  0
  3  2  2  0  0  0  0
  5  6  2  0  0  0  0
  5  9  1  0  0  0  0
  6  7  1  0  0  0  0
  7  8  2  0  0  0  0
  8 10  1  0  0  0  0
  9  8  1  0  0  0  0
 10 12  2  0  0  0  0
 11 10  2  0  0  0  0
 13  1  1  0  0  0  0
 13 16  1  0  0  0  0
 14 21  1  0  0  0  0
 15 14  1  0  0  0  0
 16 15  2  0  0  0  0
 17 18  2  0  0  0  0
 17 16  1  0  0  0  0
 18 19  1  0  0  0  0
 19 22  1  0  0  0  0
 19 14  2  0  0  0  0
 21 20  1  0  0  0  0
 22 23  1  0  0  0  0
M  END
>  <MODEL>
5

>  <REMARK>
 VINA RESULT:    -6.856      2.895      7.935
 INTER + INTRA:          -9.401
 INTER:                  -8.924
 INTRA:                  -0.477
 UNBOUND:                -0.341
  Name = CHEMBL4798435
  7 active torsions:
  status: ('A' for Active; 'I' for Inactive)
    1  A    between atoms: C_1  and  O_2
    2  A    between atoms: O_2  and  C_3
    3  A    between atoms: C_5  and  C_6
    4  A    between atoms: C_6  and  N_7
    5  A    between atoms: C_8  and  C_10
    6  A    between atoms: C_13  and  N_14
    7  A    between atoms: C_20  and  O_21
                            x       y       z     vdW  Elec       q    Type
                         _______ _______ _______ _____ _____    ______ ____

>  <TORSDO>
F 6

>  <SCORE>
-6.856

>  <RMSD_LB>
2.895

>  <RMSD_UB>
7.935

$$$$
CHEMBL4798435
 OpenBabel10172500463D

 23 24  0  0  0  0  0  0  0  0999 V2000
  135.8050  135.7790  152.4900 N   0  0  0  0  0  0  0  0  0  0  0  0
  136.5240  136.4250  153.4740 C   0  0  0  0  0  0  0  0  0  0  0  0
  137.3890  137.2550  153.2110 O   0  0  0  0  0  0  0  0  0  0  0  0
  135.1030  135.1470  152.7670 H   0  0  0  0  0  0  0  0  0  0  0  0
  136.1830  136.0530  154.8440 C   0  0  0  0  0  0  0  0  0  0  0  0
  136.9620  136.2310  155.9770 C   0  0  0  0  0  3  0  0  0  0  0  0
  136.3340  135.7320  157.1610 C   0  0  0  0  0  3  0  0  0  0  0  0
  135.0990  135.1910  156.8800 C   0  0  0  0  0  0  0  0  0  0  0  0
  134.6970  135.2870  155.2350 S   0  0  0  0  0  0  0  0  0  0  0  0
  134.1870  134.5880  157.8170 N   0  0  0  0  0  0  0  0  0  0  0  0
  133.2480  133.9440  157.3290 O   0  0  0  0  0  0  0  0  0  0  0  0
  134.3950  134.7520  159.0260 O   0  0  0  0  0  0  0  0  0  0  0  0
  136.0260  135.9790  151.0770 C   0  0  0  0  0  2  0  0  0  0  0  0
  133.5980  135.3360  148.1980 C   0  0  0  0  0  0  0  0  0  0  0  0
  134.5600  135.9320  149.0190 C   0  0  0  0  0  3  0  0  0  0  0  0
  134.9540  135.3380  150.2310 C   0  0  0  0  0  0  0  0  0  0  0  0
  134.3720  134.1210  150.6090 C   0  0  0  0  0  3  0  0  0  0  0  0
  133.4120  133.5120  149.7970 C   0  0  0  0  0  3  0  0  0  0  0  0
  133.0300  134.1210  148.6010 C   0  0  0  0  0  0  0  0  0  0  0  0
  132.4640  137.0850  147.0440 C   0  0  0  0  0  1  0  0  0  0  0  0
  133.1620  135.8480  147.0040 O   0  0  0  0  0  0  0  0  0  0  0  0
  132.0900  133.5230  147.8030 O   0  0  0  0  0  0  0  0  0  0  0  0
  132.1610  133.5840  146.8710 H   0  0  0  0  0  0  0  0  0  0  0  0
  1  4  1  0  0  0  0
  1  2  1  0  0  0  0
  2  5  1  0  0  0  0
  3  2  2  0  0  0  0
  5  9  1  0  0  0  0
  5  6  2  0  0  0  0
  6  7  1  0  0  0  0
  8  7  2  0  0  0  0
  8 10  1  0  0  0  0
  9  8  1  0  0  0  0
 10 12  2  0  0  0  0
 11 10  2  0  0  0  0
 13  1  1  0  0  0  0
 14 19  2  0  0  0  0
 14 15  1  0  0  0  0
 15 16  2  0  0  0  0
 16 17  1  0  0  0  0
 16 13  1  0  0  0  0
 18 17  2  0  0  0  0
 19 18  1  0  0  0  0
 21 20  1  0  0  0  0
 21 14  1  0  0  0  0
 22 19  1  0  0  0  0
 23 22  1  0  0  0  0
M  END
>  <MODEL>
6

>  <REMARK>
 VINA RESULT:    -6.821      8.335     11.466
 INTER + INTRA:          -9.356
 INTER:                  -8.968
 INTRA:                  -0.388
 UNBOUND:                -0.341
  Name = CHEMBL4798435
  7 active torsions:
  status: ('A' for Active; 'I' for Inactive)
    1  A    between atoms: C_1  and  O_2
    2  A    between atoms: O_2  and  C_3
    3  A    between atoms: C_5  and  C_6
    4  A    between atoms: C_6  and  N_7
    5  A    between atoms: C_8  and  C_10
    6  A    between atoms: C_13  and  N_14
    7  A    between atoms: C_20  and  O_21
                            x       y       z     vdW  Elec       q    Type
                         _______ _______ _______ _____ _____    ______ ____

>  <TORSDO>
F 6

>  <SCORE>
-6.821

>  <RMSD_LB>
8.335

>  <RMSD_UB>
11.466

$$$$
CHEMBL4798435
 OpenBabel10172500463D

 23 24  0  0  0  0  0  0  0  0999 V2000
  134.9810  134.3200  154.0720 N   0  0  0  0  0  0  0  0  0  0  0  0
  134.4390  135.0530  155.1070 C   0  0  0  0  0  0  0  0  0  0  0  0
  133.2290  135.2360  155.2130 O   0  0  0  0  0  0  0  0  0  0  0  0
  135.9560  134.1840  154.0600 H   0  0  0  0  0  0  0  0  0  0  0  0
  135.4010  135.5940  156.0620 C   0  0  0  0  0  0  0  0  0  0  0  0
  135.5500  135.2370  157.3930 C   0  0  0  0  0  3  0  0  0  0  0  0
  136.5780  135.9810  158.0510 C   0  0  0  0  0  3  0  0  0  0  0  0
  137.1710  136.8800  157.1930 C   0  0  0  0  0  0  0  0  0  0  0  0
  136.5160  136.8270  155.6290 S   0  0  0  0  0  0  0  0  0  0  0  0
  138.2330  137.8020  157.5050 N   0  0  0  0  0  0  0  0  0  0  0  0
  138.2700  138.2200  158.6710 O   0  0  0  0  0  0  0  0  0  0  0  0
  139.0230  138.1120  156.6040 O   0  0  0  0  0  0  0  0  0  0  0  0
  134.1970  133.7420  153.0060 C   0  0  0  0  0  2  0  0  0  0  0  0
  134.3390  134.4920  149.2620 C   0  0  0  0  0  0  0  0  0  0  0  0
  133.8730  134.1300  150.5300 C   0  0  0  0  0  3  0  0  0  0  0  0
  134.7340  134.0930  151.6410 C   0  0  0  0  0  0  0  0  0  0  0  0
  136.0810  134.4360  151.4640 C   0  0  0  0  0  3  0  0  0  0  0  0
  136.5600  134.8030  150.2050 C   0  0  0  0  0  3  0  0  0  0  0  0
  135.6910  134.8270  149.1140 C   0  0  0  0  0  0  0  0  0  0  0  0
  133.0680  133.3290  147.6180 C   0  0  0  0  0  1  0  0  0  0  0  0
  133.5660  134.5560  148.1330 O   0  0  0  0  0  0  0  0  0  0  0  0
  136.1600  135.1890  147.8790 O   0  0  0  0  0  0  0  0  0  0  0  0
  135.6860  135.8100  147.3610 H   0  0  0  0  0  0  0  0  0  0  0  0
  1  2  1  0  0  0  0
  2  3  2  0  0  0  0
  2  5  1  0  0  0  0
  4  1  1  0  0  0  0
  5  6  2  0  0  0  0
  6  7  1  0  0  0  0
  8 10  1  0  0  0  0
  8  7  2  0  0  0  0
  9  5  1  0  0  0  0
  9  8  1  0  0  0  0
 10 11  2  0  0  0  0
 12 10  2  0  0  0  0
 13  1  1  0  0  0  0
 14 15  1  0  0  0  0
 15 16  2  0  0  0  0
 16 13  1  0  0  0  0
 17 16  1  0  0  0  0
 18 17  2  0  0  0  0
 19 14  2  0  0  0  0
 19 18  1  0  0  0  0
 20 21  1  0  0  0  0
 21 14  1  0  0  0  0
 22 19  1  0  0  0  0
 23 22  1  0  0  0  0
M  END
>  <MODEL>
7

>  <REMARK>
 VINA RESULT:    -6.666      7.953     10.853
 INTER + INTRA:          -9.150
 INTER:                  -8.738
 INTRA:                  -0.412
 UNBOUND:                -0.341
  Name = CHEMBL4798435
  7 active torsions:
  status: ('A' for Active; 'I' for Inactive)
    1  A    between atoms: C_1  and  O_2
    2  A    between atoms: O_2  and  C_3
    3  A    between atoms: C_5  and  C_6
    4  A    between atoms: C_6  and  N_7
    5  A    between atoms: C_8  and  C_10
    6  A    between atoms: C_13  and  N_14
    7  A    between atoms: C_20  and  O_21
                            x       y       z     vdW  Elec       q    Type
                         _______ _______ _______ _____ _____    ______ ____

>  <TORSDO>
F 6

>  <SCORE>
-6.666

>  <RMSD_LB>
7.953

>  <RMSD_UB>
10.853

$$$$
CHEMBL4798435
 OpenBabel10172500463D

 23 24  0  0  0  0  0  0  0  0999 V2000
  135.1710  134.6360  152.8900 N   0  0  0  0  0  0  0  0  0  0  0  0
  134.7220  135.0220  154.1360 C   0  0  0  0  0  0  0  0  0  0  0  0
  133.5620  134.8400  154.4960 O   0  0  0  0  0  0  0  0  0  0  0  0
  136.1200  134.7820  152.6730 H   0  0  0  0  0  0  0  0  0  0  0  0
  135.7190  135.6590  154.9910 C   0  0  0  0  0  0  0  0  0  0  0  0
  135.8270  135.5560  156.3700 C   0  0  0  0  0  3  0  0  0  0  0  0
  136.9080  136.3290  156.8960 C   0  0  0  0  0  3  0  0  0  0  0  0
  137.5800  136.9940  155.8950 C   0  0  0  0  0  0  0  0  0  0  0  0
  136.9350  136.6910  154.3550 S   0  0  0  0  0  0  0  0  0  0  0  0
  138.7130  137.8710  156.0480 N   0  0  0  0  0  0  0  0  0  0  0  0
  138.7270  138.8780  155.3260 O   0  0  0  0  0  0  0  0  0  0  0  0
  139.5820  137.5660  156.8740 O   0  0  0  0  0  0  0  0  0  0  0  0
  134.3260  134.0310  151.8880 C   0  0  0  0  0  2  0  0  0  0  0  0
  134.3020  135.6770  148.4400 C   0  0  0  0  0  0  0  0  0  0  0  0
  134.6210  134.8350  149.5100 C   0  0  0  0  0  3  0  0  0  0  0  0
  133.9980  134.9800  150.7630 C   0  0  0  0  0  0  0  0  0  0  0  0
  133.0350  135.9850  150.9270 C   0  0  0  0  0  3  0  0  0  0  0  0
  132.7050  136.8300  149.8660 C   0  0  0  0  0  3  0  0  0  0  0  0
  133.3390  136.6740  148.6330 C   0  0  0  0  0  0  0  0  0  0  0  0
  134.4370  134.5300  146.3570 C   0  0  0  0  0  1  0  0  0  0  0  0
  134.8600  135.5990  147.1910 O   0  0  0  0  0  0  0  0  0  0  0  0
  133.0130  137.5020  147.5910 O   0  0  0  0  0  0  0  0  0  0  0  0
  132.4090  137.2150  146.9360 H   0  0  0  0  0  0  0  0  0  0  0  0
  1  2  1  0  0  0  0
  2  3  2  0  0  0  0
  2  5  1  0  0  0  0
  4  1  1  0  0  0  0
  5  6  2  0  0  0  0
  6  7  1  0  0  0  0
  8 10  1  0  0  0  0
  8  7  2  0  0  0  0
  9  5  1  0  0  0  0
  9  8  1  0  0  0  0
 10 12  2  0  0  0  0
 11 10  2  0  0  0  0
 13  1  1  0  0  0  0
 14 19  2  0  0  0  0
 14 15  1  0  0  0  0
 15 16  2  0  0  0  0
 16 17  1  0  0  0  0
 16 13  1  0  0  0  0
 18 17  2  0  0  0  0
 19 18  1  0  0  0  0
 20 21  1  0  0  0  0
 21 14  1  0  0  0  0
 22 19  1  0  0  0  0
 23 22  1  0  0  0  0
M  END
>  <MODEL>
8

>  <REMARK>
 VINA RESULT:    -6.527      7.298     11.116
 INTER + INTRA:          -8.967
 INTER:                  -8.517
 INTRA:                  -0.450
 UNBOUND:                -0.341
  Name = CHEMBL4798435
  7 active torsions:
  status: ('A' for Active; 'I' for Inactive)
    1  A    between atoms: C_1  and  O_2
    2  A    between atoms: O_2  and  C_3
    3  A    between atoms: C_5  and  C_6
    4  A    between atoms: C_6  and  N_7
    5  A    between atoms: C_8  and  C_10
    6  A    between atoms: C_13  and  N_14
    7  A    between atoms: C_20  and  O_21
                            x       y       z     vdW  Elec       q    Type
                         _______ _______ _______ _____ _____    ______ ____

>  <TORSDO>
F 6

>  <SCORE>
-6.527

>  <RMSD_LB>
7.298

>  <RMSD_UB>
11.116

$$$$
CHEMBL4798435
 OpenBabel10172500463D

 23 24  0  0  0  0  0  0  0  0999 V2000
  143.8630  138.6540  152.5550 N   0  0  0  0  0  0  0  0  0  0  0  0
  144.8470  138.9500  151.6360 C   0  0  0  0  0  0  0  0  0  0  0  0
  144.9850  138.3070  150.5990 O   0  0  0  0  0  0  0  0  0  0  0  0
  143.7840  139.2270  153.3520 H   0  0  0  0  0  0  0  0  0  0  0  0
  145.7090  140.0760  151.9820 C   0  0  0  0  0  0  0  0  0  0  0  0
  145.3640  141.4190  152.0010 C   0  0  0  0  0  3  0  0  0  0  0  0
  146.4580  142.2630  152.3650 C   0  0  0  0  0  3  0  0  0  0  0  0
  147.5970  141.5280  152.6070 C   0  0  0  0  0  0  0  0  0  0  0  0
  147.3580  139.8600  152.4110 S   0  0  0  0  0  0  0  0  0  0  0  0
  148.8900  142.0370  152.9870 N   0  0  0  0  0  0  0  0  0  0  0  0
  149.1290  142.0710  154.2020 O   0  0  0  0  0  0  0  0  0  0  0  0
  149.6620  142.4020  152.0910 O   0  0  0  0  0  0  0  0  0  0  0  0
  142.9410  137.5520  152.4130 C   0  0  0  0  0  2  0  0  0  0  0  0
  139.1420  137.9270  152.5740 C   0  0  0  0  0  0  0  0  0  0  0  0
  140.4340  137.6620  152.1100 C   0  0  0  0  0  3  0  0  0  0  0  0
  141.5610  137.8870  152.9210 C   0  0  0  0  0  0  0  0  0  0  0  0
  141.3720  138.3760  154.2200 C   0  0  0  0  0  3  0  0  0  0  0  0
  140.0870  138.6410  154.6980 C   0  0  0  0  0  3  0  0  0  0  0  0
  138.9830  138.4180  153.8760 C   0  0  0  0  0  0  0  0  0  0  0  0
  138.1090  137.7680  150.4330 C   0  0  0  0  0  1  0  0  0  0  0  0
  137.9950  137.7330  151.8490 O   0  0  0  0  0  0  0  0  0  0  0  0
  137.7210  138.6760  154.3450 O   0  0  0  0  0  0  0  0  0  0  0  0
  137.0480  138.0300  154.2580 H   0  0  0  0  0  0  0  0  0  0  0  0
  1  4  1  0  0  0  0
  2  5  1  0  0  0  0
  2  1  1  0  0  0  0
  3  2  2  0  0  0  0
  5  6  2  0  0  0  0
  5  9  1  0  0  0  0
  6  7  1  0  0  0  0
  7  8  2  0  0  0  0
  8 10  1  0  0  0  0
  9  8  1  0  0  0  0
 10 11  2  0  0  0  0
 12 10  2  0  0  0  0
 13  1  1  0  0  0  0
 13 16  1  0  0  0  0
 14 19  1  0  0  0  0
 15 14  2  0  0  0  0
 15 16  1  0  0  0  0
 16 17  2  0  0  0  0
 17 18  1  0  0  0  0
 19 22  1  0  0  0  0
 19 18  2  0  0  0  0
 20 21  1  0  0  0  0
 21 14  1  0  0  0  0
 23 22  1  0  0  0  0
M  END
>  <MODEL>
9

>  <REMARK>
 VINA RESULT:    -6.508      3.038      8.453
 INTER + INTRA:          -8.942
 INTER:                  -8.600
 INTRA:                  -0.341
 UNBOUND:                -0.341
  Name = CHEMBL4798435
  7 active torsions:
  status: ('A' for Active; 'I' for Inactive)
    1  A    between atoms: C_1  and  O_2
    2  A    between atoms: O_2  and  C_3
    3  A    between atoms: C_5  and  C_6
    4  A    between atoms: C_6  and  N_7
    5  A    between atoms: C_8  and  C_10
    6  A    between atoms: C_13  and  N_14
    7  A    between atoms: C_20  and  O_21
                            x       y       z     vdW  Elec       q    Type
                         _______ _______ _______ _____ _____    ______ ____

>  <TORSDO>
F 6

>  <SCORE>
-6.508

>  <RMSD_LB>
3.038

>  <RMSD_UB>
8.453

$$$$
