CHEMBL3787465
 OpenBabel10172500453D

 24 25  0  0  0  0  0  0  0  0999 V2000
  134.5650  134.5060  151.8230 C   0  0  0  0  0  3  0  0  0  0  0  0
  133.6300  134.8100  152.7390 C   0  0  0  0  0  3  0  0  0  0  0  0
  134.9400  133.9460  148.0760 C   0  0  0  0  0  0  0  0  0  0  0  0
  135.2440  134.2680  149.4060 C   0  0  0  0  0  3  0  0  0  0  0  0
  134.2750  134.1670  150.4180 C   0  0  0  0  0  0  0  0  0  0  0  0
  132.9750  133.7770  150.0700 C   0  0  0  0  0  3  0  0  0  0  0  0
  132.6550  133.4590  148.7470 C   0  0  0  0  0  3  0  0  0  0  0  0
  133.6380  133.5400  147.7610 C   0  0  0  0  0  0  0  0  0  0  0  0
  136.8000  132.9640  146.9510 C   0  0  0  0  0  1  0  0  0  0  0  0
  135.8300  133.9980  147.0340 O   0  0  0  0  0  0  0  0  0  0  0  0
  133.3280  133.2250  146.4650 O   0  0  0  0  0  0  0  0  0  0  0  0
  133.6790  133.7370  145.7620 H   0  0  0  0  0  0  0  0  0  0  0  0
  134.0240  135.1600  154.1300 C   0  0  0  0  0  0  0  0  0  0  0  0
  133.2190  135.2080  155.0490 O   0  0  0  0  0  0  0  0  0  0  0  0
  135.3660  135.4220  154.2580 N   0  0  0  0  0  0  0  0  0  0  0  0
  135.9500  135.3140  153.4730 H   0  0  0  0  0  0  0  0  0  0  0  0
  135.9480  135.8530  155.5110 C   0  0  0  0  0  2  0  0  0  0  0  0
  137.2400  136.6060  155.3060 C   0  0  0  0  0  0  0  0  0  0  0  0
  137.5290  137.2100  154.0720 C   0  0  0  0  0  3  0  0  0  0  0  0
  138.7030  137.9500  153.8990 C   0  0  0  0  0  3  0  0  0  0  0  0
  139.5960  138.0920  154.9570 C   0  0  0  0  0  0  0  0  0  0  0  0
  141.0380  139.0070  154.7430 Cl  0  0  0  0  0  0  0  0  0  0  0  0
  139.3260  137.5030  156.1900 C   0  0  0  0  0  3  0  0  0  0  0  0
  138.1510  136.7650  156.3630 C   0  0  0  0  0  3  0  0  0  0  0  0
  1  2  2  0  0  0  0
  2 13  1  0  0  0  0
  3  4  1  0  0  0  0
  4  5  2  0  0  0  0
  5  1  1  0  0  0  0
  6  5  1  0  0  0  0
  7  6  2  0  0  0  0
  8  3  2  0  0  0  0
  8  7  1  0  0  0  0
  9 10  1  0  0  0  0
 10  3  1  0  0  0  0
 11  8  1  0  0  0  0
 12 11  1  0  0  0  0
 13 15  1  0  0  0  0
 13 14  2  0  0  0  0
 15 17  1  0  0  0  0
 16 15  1  0  0  0  0
 18 17  1  0  0  0  0
 18 24  1  0  0  0  0
 19 18  2  0  0  0  0
 20 19  1  0  0  0  0
 20 21  2  0  0  0  0
 21 23  1  0  0  0  0
 22 21  1  0  0  0  0
 23 24  2  0  0  0  0
M  END
>  <MODEL>
1

>  <REMARK>
 VINA RESULT:    -7.587      0.000      0.000
 INTER + INTRA:         -10.452
 INTER:                  -9.916
 INTRA:                  -0.537
 UNBOUND:                -0.426
  Name = CHEMBL3787465
  7 active torsions:
  status: ('A' for Active; 'I' for Inactive)
    1  A    between atoms: C_1  and  O_2
    2  A    between atoms: O_2  and  C_3
    3  A    between atoms: C_5  and  C_6
    4  A    between atoms: C_7  and  C_8
    5  A    between atoms: N_10  and  C_11
    6  A    between atoms: C_11  and  C_12
    7  A    between atoms: C_21  and  O_22
                            x       y       z     vdW  Elec       q    Type
                         _______ _______ _______ _____ _____    ______ ____

>  <TORSDO>
F 6

>  <SCORE>
-7.587

>  <RMSD_LB>
0.000

>  <RMSD_UB>
0.000

$$$$
CHEMBL3787465
 OpenBabel10172500453D

 24 25  0  0  0  0  0  0  0  0999 V2000
  135.5400  135.2560  154.8590 C   0  0  0  0  0  3  0  0  0  0  0  0
  135.8420  135.4440  153.5630 C   0  0  0  0  0  3  0  0  0  0  0  0
  136.5760  136.3650  158.3500 C   0  0  0  0  0  0  0  0  0  0  0  0
  136.0070  135.6170  157.3110 C   0  0  0  0  0  3  0  0  0  0  0  0
  136.1340  136.0200  155.9710 C   0  0  0  0  0  0  0  0  0  0  0  0
  136.8090  137.2150  155.6880 C   0  0  0  0  0  3  0  0  0  0  0  0
  137.3760  137.9750  156.7150 C   0  0  0  0  0  3  0  0  0  0  0  0
  137.2610  137.5450  158.0360 C   0  0  0  0  0  0  0  0  0  0  0  0
  136.5410  134.6520  160.0100 C   0  0  0  0  0  1  0  0  0  0  0  0
  136.5160  136.0320  159.6790 O   0  0  0  0  0  0  0  0  0  0  0  0
  137.8190  138.2850  159.0440 O   0  0  0  0  0  0  0  0  0  0  0  0
  138.7510  138.3710  159.1010 H   0  0  0  0  0  0  0  0  0  0  0  0
  135.1720  134.6370  152.5090 C   0  0  0  0  0  0  0  0  0  0  0  0
  135.7950  133.9560  151.7060 O   0  0  0  0  0  0  0  0  0  0  0  0
  133.8030  134.7460  152.5380 N   0  0  0  0  0  0  0  0  0  0  0  0
  133.3820  135.2810  153.2490 H   0  0  0  0  0  0  0  0  0  0  0  0
  132.9610  134.1000  151.5540 C   0  0  0  0  0  2  0  0  0  0  0  0
  132.8550  134.9060  150.2820 C   0  0  0  0  0  0  0  0  0  0  0  0
  132.7020  136.3010  150.3290 C   0  0  0  0  0  3  0  0  0  0  0  0
  132.6560  137.0520  149.1500 C   0  0  0  0  0  3  0  0  0  0  0  0
  132.7600  136.4150  147.9170 C   0  0  0  0  0  0  0  0  0  0  0  0
  132.7060  137.3430  146.4680 Cl  0  0  0  0  0  0  0  0  0  0  0  0
  132.9150  135.0330  147.8500 C   0  0  0  0  0  3  0  0  0  0  0  0
  132.9640  134.2820  149.0290 C   0  0  0  0  0  3  0  0  0  0  0  0
  1  5  1  0  0  0  0
  2  1  2  0  0  0  0
  3 10  1  0  0  0  0
  4  3  2  0  0  0  0
  5  4  1  0  0  0  0
  6  5  2  0  0  0  0
  6  7  1  0  0  0  0
  7  8  2  0  0  0  0
  8  3  1  0  0  0  0
  8 11  1  0  0  0  0
 10  9  1  0  0  0  0
 11 12  1  0  0  0  0
 13 15  1  0  0  0  0
 13  2  1  0  0  0  0
 14 13  2  0  0  0  0
 15 16  1  0  0  0  0
 17 15  1  0  0  0  0
 18 19  1  0  0  0  0
 18 17  1  0  0  0  0
 20 19  2  0  0  0  0
 21 20  1  0  0  0  0
 22 21  1  0  0  0  0
 23 21  2  0  0  0  0
 23 24  1  0  0  0  0
 24 18  2  0  0  0  0
M  END
>  <MODEL>
2

>  <REMARK>
 VINA RESULT:    -7.562      3.832      8.843
 INTER + INTRA:         -10.419
 INTER:                  -9.893
 INTRA:                  -0.526
 UNBOUND:                -0.426
  Name = CHEMBL3787465
  7 active torsions:
  status: ('A' for Active; 'I' for Inactive)
    1  A    between atoms: C_1  and  O_2
    2  A    between atoms: O_2  and  C_3
    3  A    between atoms: C_5  and  C_6
    4  A    between atoms: C_7  and  C_8
    5  A    between atoms: N_10  and  C_11
    6  A    between atoms: C_11  and  C_12
    7  A    between atoms: C_21  and  O_22
                            x       y       z     vdW  Elec       q    Type
                         _______ _______ _______ _____ _____    ______ ____

>  <TORSDO>
F 6

>  <SCORE>
-7.562

>  <RMSD_LB>
3.832

>  <RMSD_UB>
8.843

$$$$
CHEMBL3787465
 OpenBabel10172500453D

 24 25  0  0  0  0  0  0  0  0999 V2000
  140.9140  138.6990  153.7630 C   0  0  0  0  0  3  0  0  0  0  0  0
  141.2910  138.8930  155.0380 C   0  0  0  0  0  3  0  0  0  0  0  0
  137.4180  137.1940  153.8750 C   0  0  0  0  0  0  0  0  0  0  0  0
  138.6320  137.7600  154.2870 C   0  0  0  0  0  3  0  0  0  0  0  0
  139.6250  138.1090  153.3570 C   0  0  0  0  0  0  0  0  0  0  0  0
  139.4000  137.8430  152.0000 C   0  0  0  0  0  3  0  0  0  0  0  0
  138.1960  137.2720  151.5740 C   0  0  0  0  0  3  0  0  0  0  0  0
  137.2130  136.9570  152.5100 C   0  0  0  0  0  0  0  0  0  0  0  0
  136.5550  137.1180  156.0970 C   0  0  0  0  0  1  0  0  0  0  0  0
  136.3920  136.8440  154.7140 O   0  0  0  0  0  0  0  0  0  0  0  0
  136.0320  136.4030  152.0960 O   0  0  0  0  0  0  0  0  0  0  0  0
  135.2610  136.9320  152.0370 H   0  0  0  0  0  0  0  0  0  0  0  0
  142.6050  139.5170  155.3470 C   0  0  0  0  0  0  0  0  0  0  0  0
  142.7310  140.4140  156.1680 O   0  0  0  0  0  0  0  0  0  0  0  0
  143.6380  138.9820  154.6160 N   0  0  0  0  0  0  0  0  0  0  0  0
  143.4530  138.2280  154.0110 H   0  0  0  0  0  0  0  0  0  0  0  0
  144.9890  139.4930  154.7100 C   0  0  0  0  0  2  0  0  0  0  0  0
  145.3480  140.3630  153.5290 C   0  0  0  0  0  0  0  0  0  0  0  0
  144.7660  140.1380  152.2710 C   0  0  0  0  0  3  0  0  0  0  0  0
  145.0610  140.9750  151.1910 C   0  0  0  0  0  3  0  0  0  0  0  0
  145.9390  142.0420  151.3590 C   0  0  0  0  0  0  0  0  0  0  0  0
  146.2970  143.0740  150.0290 Cl  0  0  0  0  0  0  0  0  0  0  0  0
  146.5240  142.2830  152.6000 C   0  0  0  0  0  3  0  0  0  0  0  0
  146.2270  141.4470  153.6810 C   0  0  0  0  0  3  0  0  0  0  0  0
  1  2  2  0  0  0  0
  2 13  1  0  0  0  0
  3  4  1  0  0  0  0
  3 10  1  0  0  0  0
  5  1  1  0  0  0  0
  5  4  2  0  0  0  0
  6  5  1  0  0  0  0
  7  6  2  0  0  0  0
  7  8  1  0  0  0  0
  8  3  2  0  0  0  0
 10  9  1  0  0  0  0
 11  8  1  0  0  0  0
 12 11  1  0  0  0  0
 13 14  2  0  0  0  0
 15 17  1  0  0  0  0
 15 13  1  0  0  0  0
 16 15  1  0  0  0  0
 18 24  1  0  0  0  0
 18 17  1  0  0  0  0
 19 18  2  0  0  0  0
 20 21  2  0  0  0  0
 20 19  1  0  0  0  0
 21 23  1  0  0  0  0
 22 21  1  0  0  0  0
 23 24  2  0  0  0  0
M  END
>  <MODEL>
3

>  <REMARK>
 VINA RESULT:    -7.419      5.600      8.483
 INTER + INTRA:         -10.230
 INTER:                  -9.631
 INTRA:                  -0.599
 UNBOUND:                -0.426
  Name = CHEMBL3787465
  7 active torsions:
  status: ('A' for Active; 'I' for Inactive)
    1  A    between atoms: C_1  and  O_2
    2  A    between atoms: O_2  and  C_3
    3  A    between atoms: C_5  and  C_6
    4  A    between atoms: C_7  and  C_8
    5  A    between atoms: N_10  and  C_11
    6  A    between atoms: C_11  and  C_12
    7  A    between atoms: C_21  and  O_22
                            x       y       z     vdW  Elec       q    Type
                         _______ _______ _______ _____ _____    ______ ____

>  <TORSDO>
F 6

>  <SCORE>
-7.419

>  <RMSD_LB>
5.600

>  <RMSD_UB>
8.483

$$$$
CHEMBL3787465
 OpenBabel10172500453D

 24 25  0  0  0  0  0  0  0  0999 V2000
  135.9750  136.2740  151.9000 C   0  0  0  0  0  3  0  0  0  0  0  0
  136.2170  136.0630  153.2050 C   0  0  0  0  0  3  0  0  0  0  0  0
  133.4580  135.3130  149.2100 C   0  0  0  0  0  0  0  0  0  0  0  0
  134.3980  136.0480  149.9450 C   0  0  0  0  0  3  0  0  0  0  0  0
  134.9890  135.5200  151.1050 C   0  0  0  0  0  0  0  0  0  0  0  0
  134.5890  134.2520  151.5460 C   0  0  0  0  0  3  0  0  0  0  0  0
  133.6470  133.5100  150.8280 C   0  0  0  0  0  3  0  0  0  0  0  0
  133.0930  134.0400  149.6640 C   0  0  0  0  0  0  0  0  0  0  0  0
  132.6900  137.1460  147.8910 C   0  0  0  0  0  1  0  0  0  0  0  0
  132.8510  135.7450  148.0590 O   0  0  0  0  0  0  0  0  0  0  0  0
  132.1730  133.3140  148.9560 O   0  0  0  0  0  0  0  0  0  0  0  0
  131.6710  133.7250  148.2800 H   0  0  0  0  0  0  0  0  0  0  0  0
  137.2190  136.8920  153.9280 C   0  0  0  0  0  0  0  0  0  0  0  0
  137.3210  136.8860  155.1460 O   0  0  0  0  0  0  0  0  0  0  0  0
  137.9950  137.6510  153.0870 N   0  0  0  0  0  0  0  0  0  0  0  0
  137.8760  137.5580  152.1140 H   0  0  0  0  0  0  0  0  0  0  0  0
  138.9830  138.5830  153.5870 C   0  0  0  0  0  2  0  0  0  0  0  0
  140.3900  138.1460  153.2590 C   0  0  0  0  0  0  0  0  0  0  0  0
  140.7170  137.6880  151.9730 C   0  0  0  0  0  3  0  0  0  0  0  0
  142.0320  137.3320  151.6570 C   0  0  0  0  0  3  0  0  0  0  0  0
  143.0280  137.4290  152.6230 C   0  0  0  0  0  0  0  0  0  0  0  0
  144.6470  136.9940  152.2300 Cl  0  0  0  0  0  0  0  0  0  0  0  0
  142.7250  137.8830  153.9040 C   0  0  0  0  0  3  0  0  0  0  0  0
  141.4110  138.2420  154.2190 C   0  0  0  0  0  3  0  0  0  0  0  0
  1  2  2  0  0  0  0
  2 13  1  0  0  0  0
  3  8  2  0  0  0  0
  3  4  1  0  0  0  0
  4  5  2  0  0  0  0
  5  6  1  0  0  0  0
  5  1  1  0  0  0  0
  7  6  2  0  0  0  0
  8  7  1  0  0  0  0
  9 10  1  0  0  0  0
 10  3  1  0  0  0  0
 11  8  1  0  0  0  0
 12 11  1  0  0  0  0
 13 14  2  0  0  0  0
 15 17  1  0  0  0  0
 15 13  1  0  0  0  0
 16 15  1  0  0  0  0
 18 17  1  0  0  0  0
 18 24  1  0  0  0  0
 19 18  2  0  0  0  0
 20 19  1  0  0  0  0
 20 21  2  0  0  0  0
 21 23  1  0  0  0  0
 22 21  1  0  0  0  0
 23 24  2  0  0  0  0
M  END
>  <MODEL>
4

>  <REMARK>
 VINA RESULT:    -7.317      2.754      3.605
 INTER + INTRA:         -10.096
 INTER:                  -9.563
 INTRA:                  -0.533
 UNBOUND:                -0.426
  Name = CHEMBL3787465
  7 active torsions:
  status: ('A' for Active; 'I' for Inactive)
    1  A    between atoms: C_1  and  O_2
    2  A    between atoms: O_2  and  C_3
    3  A    between atoms: C_5  and  C_6
    4  A    between atoms: C_7  and  C_8
    5  A    between atoms: N_10  and  C_11
    6  A    between atoms: C_11  and  C_12
    7  A    between atoms: C_21  and  O_22
                            x       y       z     vdW  Elec       q    Type
                         _______ _______ _______ _____ _____    ______ ____

>  <TORSDO>
F 6

>  <SCORE>
-7.317

>  <RMSD_LB>
2.754

>  <RMSD_UB>
3.605

$$$$
CHEMBL3787465
 OpenBabel10172500453D

 24 25  0  0  0  0  0  0  0  0999 V2000
  140.0040  138.0610  153.7660 C   0  0  0  0  0  3  0  0  0  0  0  0
  139.4050  138.4540  154.9020 C   0  0  0  0  0  3  0  0  0  0  0  0
  143.4210  137.8550  152.1000 C   0  0  0  0  0  0  0  0  0  0  0  0
  142.0550  137.6690  152.3520 C   0  0  0  0  0  3  0  0  0  0  0  0
  141.4370  138.2460  153.4730 C   0  0  0  0  0  0  0  0  0  0  0  0
  142.2220  138.9840  154.3690 C   0  0  0  0  0  3  0  0  0  0  0  0
  143.5870  139.1720  154.1350 C   0  0  0  0  0  3  0  0  0  0  0  0
  144.1760  138.6130  153.0020 C   0  0  0  0  0  0  0  0  0  0  0  0
  143.4290  136.3690  150.2340 C   0  0  0  0  0  1  0  0  0  0  0  0
  144.0960  137.3450  151.0210 O   0  0  0  0  0  0  0  0  0  0  0  0
  145.5120  138.8000  152.7680 O   0  0  0  0  0  0  0  0  0  0  0  0
  145.7980  139.1730  151.9570 H   0  0  0  0  0  0  0  0  0  0  0  0
  137.9540  138.2030  155.1150 C   0  0  0  0  0  0  0  0  0  0  0  0
  137.1450  139.1080  155.2640 O   0  0  0  0  0  0  0  0  0  0  0  0
  137.6380  136.8670  155.1280 N   0  0  0  0  0  0  0  0  0  0  0  0
  138.3460  136.2070  154.9530 H   0  0  0  0  0  0  0  0  0  0  0  0
  136.2930  136.4000  155.3930 C   0  0  0  0  0  2  0  0  0  0  0  0
  135.7380  135.5930  154.2440 C   0  0  0  0  0  0  0  0  0  0  0  0
  134.8250  134.5510  154.4760 C   0  0  0  0  0  3  0  0  0  0  0  0
  134.2730  133.8370  153.4080 C   0  0  0  0  0  3  0  0  0  0  0  0
  134.6300  134.1580  152.1010 C   0  0  0  0  0  0  0  0  0  0  0  0
  133.9450  133.2810  150.7880 Cl  0  0  0  0  0  0  0  0  0  0  0  0
  135.5310  135.1900  151.8500 C   0  0  0  0  0  3  0  0  0  0  0  0
  136.0810  135.9050  152.9190 C   0  0  0  0  0  3  0  0  0  0  0  0
  1  2  2  0  0  0  0
  2 13  1  0  0  0  0
  3  4  2  0  0  0  0
  3  8  1  0  0  0  0
  4  5  1  0  0  0  0
  5  1  1  0  0  0  0
  5  6  2  0  0  0  0
  7  6  1  0  0  0  0
  8  7  2  0  0  0  0
  9 10  1  0  0  0  0
 10  3  1  0  0  0  0
 11  8  1  0  0  0  0
 12 11  1  0  0  0  0
 13 15  1  0  0  0  0
 13 14  2  0  0  0  0
 15 17  1  0  0  0  0
 16 15  1  0  0  0  0
 18 19  1  0  0  0  0
 18 17  1  0  0  0  0
 20 19  2  0  0  0  0
 21 20  1  0  0  0  0
 22 21  1  0  0  0  0
 23 21  2  0  0  0  0
 23 24  1  0  0  0  0
 24 18  2  0  0  0  0
M  END
>  <MODEL>
5

>  <REMARK>
 VINA RESULT:    -7.194      4.903      8.326
 INTER + INTRA:          -9.933
 INTER:                  -9.389
 INTRA:                  -0.544
 UNBOUND:                -0.426
  Name = CHEMBL3787465
  7 active torsions:
  status: ('A' for Active; 'I' for Inactive)
    1  A    between atoms: C_1  and  O_2
    2  A    between atoms: O_2  and  C_3
    3  A    between atoms: C_5  and  C_6
    4  A    between atoms: C_7  and  C_8
    5  A    between atoms: N_10  and  C_11
    6  A    between atoms: C_11  and  C_12
    7  A    between atoms: C_21  and  O_22
                            x       y       z     vdW  Elec       q    Type
                         _______ _______ _______ _____ _____    ______ ____

>  <TORSDO>
F 6

>  <SCORE>
-7.194

>  <RMSD_LB>
4.903

>  <RMSD_UB>
8.326

$$$$
CHEMBL3787465
 OpenBabel10172500453D

 24 25  0  0  0  0  0  0  0  0999 V2000
  135.6480  135.2850  154.1540 C   0  0  0  0  0  3  0  0  0  0  0  0
  134.8930  135.8160  153.1780 C   0  0  0  0  0  3  0  0  0  0  0  0
  138.0370  137.8890  155.5720 C   0  0  0  0  0  0  0  0  0  0  0  0
  137.2540  137.1620  154.6650 C   0  0  0  0  0  3  0  0  0  0  0  0
  136.4760  136.0720  155.0870 C   0  0  0  0  0  0  0  0  0  0  0  0
  136.5270  135.6890  156.4340 C   0  0  0  0  0  3  0  0  0  0  0  0
  137.3100  136.4000  157.3490 C   0  0  0  0  0  3  0  0  0  0  0  0
  138.0540  137.4960  156.9150 C   0  0  0  0  0  0  0  0  0  0  0  0
  139.9020  138.7620  154.3670 C   0  0  0  0  0  1  0  0  0  0  0  0
  138.8080  138.9750  155.2470 O   0  0  0  0  0  0  0  0  0  0  0  0
  138.8180  138.1960  157.8100 O   0  0  0  0  0  0  0  0  0  0  0  0
  138.6250  139.0960  157.9860 H   0  0  0  0  0  0  0  0  0  0  0  0
  134.0740  134.9400  152.2990 C   0  0  0  0  0  0  0  0  0  0  0  0
  133.9280  133.7450  152.5130 O   0  0  0  0  0  0  0  0  0  0  0  0
  133.5170  135.6130  151.2390 N   0  0  0  0  0  0  0  0  0  0  0  0
  133.6490  136.5850  151.1690 H   0  0  0  0  0  0  0  0  0  0  0  0
  132.7430  134.9340  150.2210 C   0  0  0  0  0  2  0  0  0  0  0  0
  133.6230  134.2150  149.2270 C   0  0  0  0  0  0  0  0  0  0  0  0
  134.4780  134.9340  148.3760 C   0  0  0  0  0  3  0  0  0  0  0  0
  135.3290  134.2650  147.4910 C   0  0  0  0  0  3  0  0  0  0  0  0
  135.3300  132.8740  147.4480 C   0  0  0  0  0  0  0  0  0  0  0  0
  136.3820  132.0520  146.3600 Cl  0  0  0  0  0  0  0  0  0  0  0  0
  134.4910  132.1430  148.2860 C   0  0  0  0  0  3  0  0  0  0  0  0
  133.6430  132.8120  149.1720 C   0  0  0  0  0  3  0  0  0  0  0  0
  1  5  1  0  0  0  0
  2  1  2  0  0  0  0
  3  8  1  0  0  0  0
  4  5  1  0  0  0  0
  4  3  2  0  0  0  0
  5  6  2  0  0  0  0
  6  7  1  0  0  0  0
  8  7  2  0  0  0  0
  8 11  1  0  0  0  0
  9 10  1  0  0  0  0
 10  3  1  0  0  0  0
 11 12  1  0  0  0  0
 13 14  2  0  0  0  0
 13  2  1  0  0  0  0
 15 13  1  0  0  0  0
 16 15  1  0  0  0  0
 17 15  1  0  0  0  0
 18 17  1  0  0  0  0
 19 18  2  0  0  0  0
 20 19  1  0  0  0  0
 21 20  2  0  0  0  0
 21 23  1  0  0  0  0
 22 21  1  0  0  0  0
 23 24  2  0  0  0  0
 24 18  1  0  0  0  0
M  END
>  <MODEL>
6

>  <REMARK>
 VINA RESULT:    -7.157      3.558      8.262
 INTER + INTRA:          -9.884
 INTER:                  -9.417
 INTRA:                  -0.467
 UNBOUND:                -0.426
  Name = CHEMBL3787465
  7 active torsions:
  status: ('A' for Active; 'I' for Inactive)
    1  A    between atoms: C_1  and  O_2
    2  A    between atoms: O_2  and  C_3
    3  A    between atoms: C_5  and  C_6
    4  A    between atoms: C_7  and  C_8
    5  A    between atoms: N_10  and  C_11
    6  A    between atoms: C_11  and  C_12
    7  A    between atoms: C_21  and  O_22
                            x       y       z     vdW  Elec       q    Type
                         _______ _______ _______ _____ _____    ______ ____

>  <TORSDO>
F 6

>  <SCORE>
-7.157

>  <RMSD_LB>
3.558

>  <RMSD_UB>
8.262

$$$$
CHEMBL3787465
 OpenBabel10172500453D

 24 25  0  0  0  0  0  0  0  0999 V2000
  143.1980  138.0620  153.7870 C   0  0  0  0  0  3  0  0  0  0  0  0
  142.5560  137.5840  152.7080 C   0  0  0  0  0  3  0  0  0  0  0  0
  146.8200  139.0600  154.4020 C   0  0  0  0  0  0  0  0  0  0  0  0
  145.4330  139.1460  154.2270 C   0  0  0  0  0  3  0  0  0  0  0  0
  144.6590  138.0000  153.9820 C   0  0  0  0  0  0  0  0  0  0  0  0
  145.3050  136.7620  153.8700 C   0  0  0  0  0  3  0  0  0  0  0  0
  146.6890  136.6620  154.0350 C   0  0  0  0  0  3  0  0  0  0  0  0
  147.4360  137.8070  154.3050 C   0  0  0  0  0  0  0  0  0  0  0  0
  147.3220  141.3670  154.0580 C   0  0  0  0  0  1  0  0  0  0  0  0
  147.6450  140.1240  154.6650 O   0  0  0  0  0  0  0  0  0  0  0  0
  148.7920  137.7110  154.4720 O   0  0  0  0  0  0  0  0  0  0  0  0
  149.3700  138.0830  153.8340 H   0  0  0  0  0  0  0  0  0  0  0  0
  141.0790  137.7120  152.5930 C   0  0  0  0  0  0  0  0  0  0  0  0
  140.4590  137.3270  151.6110 O   0  0  0  0  0  0  0  0  0  0  0  0
  140.5050  138.3050  153.6910 N   0  0  0  0  0  0  0  0  0  0  0  0
  141.0740  138.5420  154.4580 H   0  0  0  0  0  0  0  0  0  0  0  0
  139.0870  138.5920  153.7540 C   0  0  0  0  0  2  0  0  0  0  0  0
  138.3810  137.7320  154.7740 C   0  0  0  0  0  0  0  0  0  0  0  0
  138.7840  137.7390  156.1200 C   0  0  0  0  0  3  0  0  0  0  0  0
  138.0970  136.9810  157.0720 C   0  0  0  0  0  3  0  0  0  0  0  0
  137.0030  136.2100  156.6890 C   0  0  0  0  0  0  0  0  0  0  0  0
  136.1560  135.2810  157.8650 Cl  0  0  0  0  0  0  0  0  0  0  0  0
  136.5860  136.1920  155.3600 C   0  0  0  0  0  3  0  0  0  0  0  0
  137.2720  136.9530  154.4080 C   0  0  0  0  0  3  0  0  0  0  0  0
  1  5  1  0  0  0  0
  2  1  2  0  0  0  0
  3 10  1  0  0  0  0
  4  3  2  0  0  0  0
  5  4  1  0  0  0  0
  6  5  2  0  0  0  0
  6  7  1  0  0  0  0
  7  8  2  0  0  0  0
  8  3  1  0  0  0  0
  8 11  1  0  0  0  0
  9 10  1  0  0  0  0
 12 11  1  0  0  0  0
 13  2  1  0  0  0  0
 13 15  1  0  0  0  0
 14 13  2  0  0  0  0
 15 17  1  0  0  0  0
 15 16  1  0  0  0  0
 17 18  1  0  0  0  0
 18 19  1  0  0  0  0
 19 20  2  0  0  0  0
 21 20  1  0  0  0  0
 21 22  1  0  0  0  0
 23 21  2  0  0  0  0
 24 18  2  0  0  0  0
 24 23  1  0  0  0  0
M  END
>  <MODEL>
7

>  <REMARK>
 VINA RESULT:    -7.059      6.688     10.451
 INTER + INTRA:          -9.755
 INTER:                  -9.233
 INTRA:                  -0.521
 UNBOUND:                -0.426
  Name = CHEMBL3787465
  7 active torsions:
  status: ('A' for Active; 'I' for Inactive)
    1  A    between atoms: C_1  and  O_2
    2  A    between atoms: O_2  and  C_3
    3  A    between atoms: C_5  and  C_6
    4  A    between atoms: C_7  and  C_8
    5  A    between atoms: N_10  and  C_11
    6  A    between atoms: C_11  and  C_12
    7  A    between atoms: C_21  and  O_22
                            x       y       z     vdW  Elec       q    Type
                         _______ _______ _______ _____ _____    ______ ____

>  <TORSDO>
F 6

>  <SCORE>
-7.059

>  <RMSD_LB>
6.688

>  <RMSD_UB>
10.451

$$$$
CHEMBL3787465
 OpenBabel10172500453D

 24 25  0  0  0  0  0  0  0  0999 V2000
  141.4760  138.2980  151.9310 C   0  0  0  0  0  3  0  0  0  0  0  0
  142.3960  139.2160  152.2690 C   0  0  0  0  0  3  0  0  0  0  0  0
  138.8700  138.0840  154.6980 C   0  0  0  0  0  0  0  0  0  0  0  0
  140.0860  138.2990  154.0360 C   0  0  0  0  0  3  0  0  0  0  0  0
  140.2070  138.0860  152.6530 C   0  0  0  0  0  0  0  0  0  0  0  0
  139.0970  137.6100  151.9440 C   0  0  0  0  0  3  0  0  0  0  0  0
  137.8790  137.3830  152.5930 C   0  0  0  0  0  3  0  0  0  0  0  0
  137.7710  137.6260  153.9610 C   0  0  0  0  0  0  0  0  0  0  0  0
  139.3490  137.4360  156.9430 C   0  0  0  0  0  1  0  0  0  0  0  0
  138.6610  138.2860  156.0380 O   0  0  0  0  0  0  0  0  0  0  0  0
  136.5790  137.4090  154.5980 O   0  0  0  0  0  0  0  0  0  0  0  0
  135.9090  136.9040  154.1800 H   0  0  0  0  0  0  0  0  0  0  0  0
  143.6380  139.3690  151.4640 C   0  0  0  0  0  0  0  0  0  0  0  0
  144.4480  138.4630  151.3270 O   0  0  0  0  0  0  0  0  0  0  0  0
  143.7690  140.6190  150.9110 N   0  0  0  0  0  0  0  0  0  0  0  0
  143.0450  141.2740  151.0350 H   0  0  0  0  0  0  0  0  0  0  0  0
  144.9390  141.0030  150.1510 C   0  0  0  0  0  2  0  0  0  0  0  0
  146.1040  141.3550  151.0450 C   0  0  0  0  0  0  0  0  0  0  0  0
  145.8920  141.9780  152.2860 C   0  0  0  0  0  3  0  0  0  0  0  0
  146.9670  142.2580  153.1340 C   0  0  0  0  0  3  0  0  0  0  0  0
  148.2610  141.9200  152.7500 C   0  0  0  0  0  0  0  0  0  0  0  0
  149.5830  142.2620  153.7990 Cl  0  0  0  0  0  0  0  0  0  0  0  0
  148.4920  141.2990  151.5240 C   0  0  0  0  0  3  0  0  0  0  0  0
  147.4160  141.0170  150.6770 C   0  0  0  0  0  3  0  0  0  0  0  0
  1  2  2  0  0  0  0
  1  5  1  0  0  0  0
  3 10  1  0  0  0  0
  4  3  1  0  0  0  0
  5  4  2  0  0  0  0
  6  7  2  0  0  0  0
  6  5  1  0  0  0  0
  7  8  1  0  0  0  0
  8 11  1  0  0  0  0
  8  3  2  0  0  0  0
 10  9  1  0  0  0  0
 12 11  1  0  0  0  0
 13  2  1  0  0  0  0
 14 13  2  0  0  0  0
 15 16  1  0  0  0  0
 15 13  1  0  0  0  0
 17 15  1  0  0  0  0
 17 18  1  0  0  0  0
 18 19  1  0  0  0  0
 19 20  2  0  0  0  0
 21 20  1  0  0  0  0
 21 22  1  0  0  0  0
 23 21  2  0  0  0  0
 24 18  2  0  0  0  0
 24 23  1  0  0  0  0
M  END
>  <MODEL>
8

>  <REMARK>
 VINA RESULT:    -7.058      6.683      9.807
 INTER + INTRA:          -9.754
 INTER:                  -9.328
 INTRA:                  -0.426
 UNBOUND:                -0.426
  Name = CHEMBL3787465
  7 active torsions:
  status: ('A' for Active; 'I' for Inactive)
    1  A    between atoms: C_1  and  O_2
    2  A    between atoms: O_2  and  C_3
    3  A    between atoms: C_5  and  C_6
    4  A    between atoms: C_7  and  C_8
    5  A    between atoms: N_10  and  C_11
    6  A    between atoms: C_11  and  C_12
    7  A    between atoms: C_21  and  O_22
                            x       y       z     vdW  Elec       q    Type
                         _______ _______ _______ _____ _____    ______ ____

>  <TORSDO>
F 6

>  <SCORE>
-7.058

>  <RMSD_LB>
6.683

>  <RMSD_UB>
9.807

$$$$
CHEMBL3787465
 OpenBabel10172500453D

 24 25  0  0  0  0  0  0  0  0999 V2000
  136.3410  136.1040  152.5550 C   0  0  0  0  0  3  0  0  0  0  0  0
  136.4380  135.5810  151.3210 C   0  0  0  0  0  3  0  0  0  0  0  0
  138.2760  138.2300  155.0520 C   0  0  0  0  0  0  0  0  0  0  0  0
  137.3340  137.3410  154.5160 C   0  0  0  0  0  3  0  0  0  0  0  0
  137.3240  137.0300  153.1460 C   0  0  0  0  0  0  0  0  0  0  0  0
  138.2510  137.6610  152.3060 C   0  0  0  0  0  3  0  0  0  0  0  0
  139.1920  138.5560  152.8250 C   0  0  0  0  0  3  0  0  0  0  0  0
  139.2020  138.8300  154.1910 C   0  0  0  0  0  0  0  0  0  0  0  0
  137.7650  137.6960  157.3200 C   0  0  0  0  0  1  0  0  0  0  0  0
  138.3670  138.5700  156.3770 O   0  0  0  0  0  0  0  0  0  0  0  0
  140.1260  139.7030  154.7030 O   0  0  0  0  0  0  0  0  0  0  0  0
  139.8520  140.3910  155.2770 H   0  0  0  0  0  0  0  0  0  0  0  0
  135.3820  134.6700  150.8040 C   0  0  0  0  0  0  0  0  0  0  0  0
  134.6120  134.0700  151.5420 O   0  0  0  0  0  0  0  0  0  0  0  0
  135.3750  134.5800  149.4340 N   0  0  0  0  0  0  0  0  0  0  0  0
  136.0010  135.1350  148.9160 H   0  0  0  0  0  0  0  0  0  0  0  0
  134.4750  133.6920  148.7290 C   0  0  0  0  0  2  0  0  0  0  0  0
  135.0310  133.2690  147.3900 C   0  0  0  0  0  0  0  0  0  0  0  0
  134.3060  133.4970  146.2090 C   0  0  0  0  0  3  0  0  0  0  0  0
  134.8440  133.1510  144.9660 C   0  0  0  0  0  3  0  0  0  0  0  0
  136.1080  132.5740  144.8930 C   0  0  0  0  0  0  0  0  0  0  0  0
  136.7690  132.1530  143.3610 Cl  0  0  0  0  0  0  0  0  0  0  0  0
  136.8440  132.3420  146.0530 C   0  0  0  0  0  3  0  0  0  0  0  0
  136.3070  132.6910  147.2960 C   0  0  0  0  0  3  0  0  0  0  0  0
  1  5  1  0  0  0  0
  2  1  2  0  0  0  0
  3 10  1  0  0  0  0
  4  3  1  0  0  0  0
  5  4  2  0  0  0  0
  6  7  2  0  0  0  0
  6  5  1  0  0  0  0
  7  8  1  0  0  0  0
  8 11  1  0  0  0  0
  8  3  2  0  0  0  0
 10  9  1  0  0  0  0
 11 12  1  0  0  0  0
 13  2  1  0  0  0  0
 13 14  2  0  0  0  0
 15 13  1  0  0  0  0
 16 15  1  0  0  0  0
 17 15  1  0  0  0  0
 18 17  1  0  0  0  0
 19 18  2  0  0  0  0
 20 19  1  0  0  0  0
 21 20  2  0  0  0  0
 21 23  1  0  0  0  0
 22 21  1  0  0  0  0
 23 24  2  0  0  0  0
 24 18  1  0  0  0  0
M  END
>  <MODEL>
9

>  <REMARK>
 VINA RESULT:    -6.985      4.170      8.942
 INTER + INTRA:          -9.656
 INTER:                  -9.247
 INTRA:                  -0.409
 UNBOUND:                -0.426
  Name = CHEMBL3787465
  7 active torsions:
  status: ('A' for Active; 'I' for Inactive)
    1  A    between atoms: C_1  and  O_2
    2  A    between atoms: O_2  and  C_3
    3  A    between atoms: C_5  and  C_6
    4  A    between atoms: C_7  and  C_8
    5  A    between atoms: N_10  and  C_11
    6  A    between atoms: C_11  and  C_12
    7  A    between atoms: C_21  and  O_22
                            x       y       z     vdW  Elec       q    Type
                         _______ _______ _______ _____ _____    ______ ____

>  <TORSDO>
F 6

>  <SCORE>
-6.985

>  <RMSD_LB>
4.170

>  <RMSD_UB>
8.942

$$$$
