CHEMBL80297
 OpenBabel10172500243D

 23 23  0  0  0  0  0  0  0  0999 V2000
  145.5670  140.2400  148.9200 C   0  0  0  0  0  0  0  0  0  0  0  0
  146.6620  139.7740  148.6180 O   0  0  0  0  0  0  0  0  0  0  0  0
  145.3930  141.4940  149.4520 N   0  0  0  0  0  0  0  0  0  0  0  0
  144.4840  141.7960  149.6790 H   0  0  0  0  0  0  0  0  0  0  0  0
  144.2880  139.4460  148.7320 C   0  0  0  0  0  2  0  0  0  0  0  0
  144.3790  138.0280  149.2870 C   0  0  0  0  0  2  0  0  0  0  0  0
  143.3190  137.7580  150.3550 C   0  0  0  0  0  2  0  0  0  0  0  0
  143.6690  138.4670  151.6590 C   0  0  0  0  0  2  0  0  0  0  0  0
  144.7240  137.6870  152.4410 C   0  0  0  0  0  2  0  0  0  0  0  0
  145.8560  138.6080  152.8880 C   0  0  0  0  0  2  0  0  0  0  0  0
  148.3370  138.2600  152.7210 C   0  0  0  0  0  1  0  0  0  0  0  0
  147.0540  138.5070  151.9470 C   0  0  0  0  0  2  0  0  0  0  0  0
  146.5100  142.3810  149.6880 C   0  0  0  0  0  2  0  0  0  0  0  0
  147.0480  142.2330  151.0880 C   0  0  0  0  0  0  0  0  0  0  0  0
  148.4200  142.0100  151.3060 C   0  0  0  0  0  3  0  0  0  0  0  0
  148.9240  141.8410  152.6020 C   0  0  0  0  0  3  0  0  0  0  0  0
  148.0520  141.9140  153.6810 C   0  0  0  0  0  0  0  0  0  0  0  0
  146.6960  142.1540  153.4720 C   0  0  0  0  0  0  0  0  0  0  0  0
  146.1870  142.3160  152.1910 C   0  0  0  0  0  3  0  0  0  0  0  0
  148.4790  141.7530  154.9700 O   0  0  0  0  0  0  0  0  0  0  0  0
  148.0810  141.1040  155.5170 H   0  0  0  0  0  0  0  0  0  0  0  0
  145.8450  142.2270  154.5390 O   0  0  0  0  0  0  0  0  0  0  0  0
  146.1310  141.9510  155.3870 H   0  0  0  0  0  0  0  0  0  0  0  0
  1  3  1  0  0  0  0
  2  1  2  0  0  0  0
  3  4  1  0  0  0  0
  3 13  1  0  0  0  0
  5  1  1  0  0  0  0
  5  6  1  0  0  0  0
  6  7  1  0  0  0  0
  7  8  1  0  0  0  0
  8  9  1  0  0  0  0
  9 10  1  0  0  0  0
 12 11  1  0  0  0  0
 12 10  1  0  0  0  0
 13 14  1  0  0  0  0
 14 15  2  0  0  0  0
 14 19  1  0  0  0  0
 15 16  1  0  0  0  0
 16 17  2  0  0  0  0
 17 20  1  0  0  0  0
 18 17  1  0  0  0  0
 18 22  1  0  0  0  0
 19 18  2  0  0  0  0
 20 21  1  0  0  0  0
 22 23  1  0  0  0  0
M  END
>  <MODEL>
1

>  <REMARK>
 VINA RESULT:    -6.519      0.000      0.000
 INTER + INTRA:         -11.115
 INTER:                  -9.236
 INTRA:                  -1.879
 UNBOUND:                -0.785
  Name = CHEMBL80297
  12 active torsions:
  status: ('A' for Active; 'I' for Inactive)
    1  A    between atoms: C_1  and  C_2
    2  A    between atoms: C_2  and  C_3
    3  A    between atoms: C_3  and  C_4
    4  A    between atoms: C_4  and  C_5
    5  A    between atoms: C_5  and  C_6
    6  A    between atoms: C_6  and  C_7
    7  A    between atoms: C_7  and  C_8
    8  A    between atoms: C_8  and  C_9
    9  A    between atoms: N_11  and  C_12
   10  A    between atoms: C_12  and  C_13
   11  A    between atoms: C_16  and  O_17
   12  A    between atoms: C_18  and  O_19
                            x       y       z     vdW  Elec       q    Type
                         _______ _______ _______ _____ _____    ______ ____

>  <TORSDO>
F 11

>  <SCORE>
-6.519

>  <RMSD_LB>
0.000

>  <RMSD_UB>
0.000

$$$$
CHEMBL80297
 OpenBabel10172500243D

 23 23  0  0  0  0  0  0  0  0999 V2000
  145.2860  140.3310  149.0200 C   0  0  0  0  0  0  0  0  0  0  0  0
  144.2480  140.5070  149.6510 O   0  0  0  0  0  0  0  0  0  0  0  0
  146.3310  141.2220  149.0060 N   0  0  0  0  0  0  0  0  0  0  0  0
  147.1290  141.0170  148.4670 H   0  0  0  0  0  0  0  0  0  0  0  0
  145.5000  139.0890  148.1750 C   0  0  0  0  0  2  0  0  0  0  0  0
  145.5480  137.8070  149.0010 C   0  0  0  0  0  2  0  0  0  0  0  0
  146.6780  137.8260  150.0310 C   0  0  0  0  0  2  0  0  0  0  0  0
  146.1200  137.9200  151.4470 C   0  0  0  0  0  2  0  0  0  0  0  0
  146.2670  136.5900  152.1830 C   0  0  0  0  0  2  0  0  0  0  0  0
  146.4480  136.8180  153.6820 C   0  0  0  0  0  2  0  0  0  0  0  0
  146.5850  138.6750  155.3660 C   0  0  0  0  0  1  0  0  0  0  0  0
  146.9680  138.2240  153.9680 C   0  0  0  0  0  2  0  0  0  0  0  0
  146.2900  142.4530  149.7640 C   0  0  0  0  0  2  0  0  0  0  0  0
  146.8190  142.2600  151.1610 C   0  0  0  0  0  0  0  0  0  0  0  0
  145.9350  142.1760  152.2540 C   0  0  0  0  0  3  0  0  0  0  0  0
  146.4200  142.0260  153.5590 C   0  0  0  0  0  3  0  0  0  0  0  0
  147.7910  141.9430  153.7670 C   0  0  0  0  0  0  0  0  0  0  0  0
  148.6690  142.0070  152.6870 C   0  0  0  0  0  0  0  0  0  0  0  0
  148.1980  142.1620  151.3910 C   0  0  0  0  0  3  0  0  0  0  0  0
  148.3290  141.8010  155.0160 O   0  0  0  0  0  0  0  0  0  0  0  0
  149.2600  141.7810  155.1250 H   0  0  0  0  0  0  0  0  0  0  0  0
  150.0160  141.9220  152.8990 O   0  0  0  0  0  0  0  0  0  0  0  0
  150.5910  141.7270  152.1860 H   0  0  0  0  0  0  0  0  0  0  0  0
  1  2  2  0  0  0  0
  3  1  1  0  0  0  0
  3 13  1  0  0  0  0
  4  3  1  0  0  0  0
  5  6  1  0  0  0  0
  5  1  1  0  0  0  0
  6  7  1  0  0  0  0
  7  8  1  0  0  0  0
  8  9  1  0  0  0  0
  9 10  1  0  0  0  0
 10 12  1  0  0  0  0
 12 11  1  0  0  0  0
 13 14  1  0  0  0  0
 14 19  2  0  0  0  0
 14 15  1  0  0  0  0
 15 16  2  0  0  0  0
 16 17  1  0  0  0  0
 17 20  1  0  0  0  0
 18 22  1  0  0  0  0
 18 17  2  0  0  0  0
 19 18  1  0  0  0  0
 20 21  1  0  0  0  0
 23 22  1  0  0  0  0
M  END
>  <MODEL>
2

>  <REMARK>
 VINA RESULT:    -6.287      1.463      2.191
 INTER + INTRA:         -10.747
 INTER:                  -9.428
 INTRA:                  -1.320
 UNBOUND:                -0.785
  Name = CHEMBL80297
  12 active torsions:
  status: ('A' for Active; 'I' for Inactive)
    1  A    between atoms: C_1  and  C_2
    2  A    between atoms: C_2  and  C_3
    3  A    between atoms: C_3  and  C_4
    4  A    between atoms: C_4  and  C_5
    5  A    between atoms: C_5  and  C_6
    6  A    between atoms: C_6  and  C_7
    7  A    between atoms: C_7  and  C_8
    8  A    between atoms: C_8  and  C_9
    9  A    between atoms: N_11  and  C_12
   10  A    between atoms: C_12  and  C_13
   11  A    between atoms: C_16  and  O_17
   12  A    between atoms: C_18  and  O_19
                            x       y       z     vdW  Elec       q    Type
                         _______ _______ _______ _____ _____    ______ ____

>  <TORSDO>
F 11

>  <SCORE>
-6.287

>  <RMSD_LB>
1.463

>  <RMSD_UB>
2.191

$$$$
CHEMBL80297
 OpenBabel10172500243D

 23 23  0  0  0  0  0  0  0  0999 V2000
  137.2590  137.9550  155.3240 C   0  0  0  0  0  0  0  0  0  0  0  0
  137.0220  139.1510  155.4640 O   0  0  0  0  0  0  0  0  0  0  0  0
  138.0840  137.4500  154.3480 N   0  0  0  0  0  0  0  0  0  0  0  0
  138.2180  136.4770  154.2910 H   0  0  0  0  0  0  0  0  0  0  0  0
  136.6380  136.9110  156.2330 C   0  0  0  0  0  2  0  0  0  0  0  0
  136.4180  135.5700  155.5390 C   0  0  0  0  0  2  0  0  0  0  0  0
  134.9350  135.2100  155.4350 C   0  0  0  0  0  2  0  0  0  0  0  0
  134.6210  134.5860  154.0800 C   0  0  0  0  0  2  0  0  0  0  0  0
  135.7220  134.8910  153.0670 C   0  0  0  0  0  2  0  0  0  0  0  0
  135.4970  134.1160  151.7720 C   0  0  0  0  0  2  0  0  0  0  0  0
  133.7820  133.1450  150.2160 C   0  0  0  0  0  1  0  0  0  0  0  0
  134.0160  133.8190  151.5570 C   0  0  0  0  0  2  0  0  0  0  0  0
  138.7600  138.3120  153.4040 C   0  0  0  0  0  2  0  0  0  0  0  0
  140.2490  138.3230  153.6340 C   0  0  0  0  0  0  0  0  0  0  0  0
  141.1190  137.7190  152.7070 C   0  0  0  0  0  3  0  0  0  0  0  0
  142.5020  137.6980  152.9270 C   0  0  0  0  0  3  0  0  0  0  0  0
  143.0140  138.2980  154.0710 C   0  0  0  0  0  0  0  0  0  0  0  0
  142.1590  138.9140  154.9820 C   0  0  0  0  0  0  0  0  0  0  0  0
  140.7870  138.9340  154.7750 C   0  0  0  0  0  3  0  0  0  0  0  0
  144.3520  138.3080  154.3470 O   0  0  0  0  0  0  0  0  0  0  0  0
  144.9410  137.7920  153.8310 H   0  0  0  0  0  0  0  0  0  0  0  0
  142.6700  139.5040  156.1030 O   0  0  0  0  0  0  0  0  0  0  0  0
  142.1510  140.1130  156.5910 H   0  0  0  0  0  0  0  0  0  0  0  0
  1  2  2  0  0  0  0
  1  5  1  0  0  0  0
  3  1  1  0  0  0  0
  4  3  1  0  0  0  0
  6  5  1  0  0  0  0
  7  6  1  0  0  0  0
  8  7  1  0  0  0  0
  9  8  1  0  0  0  0
 10  9  1  0  0  0  0
 11 12  1  0  0  0  0
 12 10  1  0  0  0  0
 13 14  1  0  0  0  0
 13  3  1  0  0  0  0
 14 19  1  0  0  0  0
 15 16  1  0  0  0  0
 15 14  2  0  0  0  0
 16 17  2  0  0  0  0
 17 20  1  0  0  0  0
 17 18  1  0  0  0  0
 18 22  1  0  0  0  0
 19 18  2  0  0  0  0
 21 20  1  0  0  0  0
 22 23  1  0  0  0  0
M  END
>  <MODEL>
3

>  <REMARK>
 VINA RESULT:    -6.209      7.354      9.741
 INTER + INTRA:         -10.625
 INTER:                  -9.833
 INTRA:                  -0.792
 UNBOUND:                -0.785
  Name = CHEMBL80297
  12 active torsions:
  status: ('A' for Active; 'I' for Inactive)
    1  A    between atoms: C_1  and  C_2
    2  A    between atoms: C_2  and  C_3
    3  A    between atoms: C_3  and  C_4
    4  A    between atoms: C_4  and  C_5
    5  A    between atoms: C_5  and  C_6
    6  A    between atoms: C_6  and  C_7
    7  A    between atoms: C_7  and  C_8
    8  A    between atoms: C_8  and  C_9
    9  A    between atoms: N_11  and  C_12
   10  A    between atoms: C_12  and  C_13
   11  A    between atoms: C_16  and  O_17
   12  A    between atoms: C_18  and  O_19
                            x       y       z     vdW  Elec       q    Type
                         _______ _______ _______ _____ _____    ______ ____

>  <TORSDO>
F 11

>  <SCORE>
-6.209

>  <RMSD_LB>
7.354

>  <RMSD_UB>
9.741

$$$$
CHEMBL80297
 OpenBabel10172500243D

 23 23  0  0  0  0  0  0  0  0999 V2000
  144.7160  140.3110  149.5260 C   0  0  0  0  0  0  0  0  0  0  0  0
  143.7600  140.5900  150.2440 O   0  0  0  0  0  0  0  0  0  0  0  0
  145.8160  141.1180  149.3730 N   0  0  0  0  0  0  0  0  0  0  0  0
  146.5400  140.8320  148.7700 H   0  0  0  0  0  0  0  0  0  0  0  0
  144.7550  139.0240  148.7230 C   0  0  0  0  0  2  0  0  0  0  0  0
  144.8520  137.7770  149.5970 C   0  0  0  0  0  2  0  0  0  0  0  0
  144.0270  136.6170  149.0400 C   0  0  0  0  0  2  0  0  0  0  0  0
  142.7340  136.4410  149.8290 C   0  0  0  0  0  2  0  0  0  0  0  0
  142.8690  137.0150  151.2370 C   0  0  0  0  0  2  0  0  0  0  0  0
  141.5280  137.5480  151.7360 C   0  0  0  0  0  2  0  0  0  0  0  0
  142.1950  137.9770  154.1180 C   0  0  0  0  0  1  0  0  0  0  0  0
  141.7230  138.6060  152.8180 C   0  0  0  0  0  2  0  0  0  0  0  0
  145.9380  142.3770  150.0740 C   0  0  0  0  0  2  0  0  0  0  0  0
  146.6510  142.2090  151.3910 C   0  0  0  0  0  0  0  0  0  0  0  0
  145.9210  142.0950  152.5890 C   0  0  0  0  0  3  0  0  0  0  0  0
  146.5760  141.9680  153.8200 C   0  0  0  0  0  3  0  0  0  0  0  0
  147.9650  141.9390  153.8480 C   0  0  0  0  0  0  0  0  0  0  0  0
  148.6920  142.0320  152.6630 C   0  0  0  0  0  0  0  0  0  0  0  0
  148.0510  142.1640  151.4390 C   0  0  0  0  0  3  0  0  0  0  0  0
  148.6640  141.8220  155.0160 O   0  0  0  0  0  0  0  0  0  0  0  0
  148.7230  140.9910  155.4460 H   0  0  0  0  0  0  0  0  0  0  0  0
  150.0570  141.9990  152.6980 O   0  0  0  0  0  0  0  0  0  0  0  0
  150.5100  142.1850  153.4970 H   0  0  0  0  0  0  0  0  0  0  0  0
  1  2  2  0  0  0  0
  3  1  1  0  0  0  0
  3 13  1  0  0  0  0
  4  3  1  0  0  0  0
  5  1  1  0  0  0  0
  5  6  1  0  0  0  0
  7  6  1  0  0  0  0
  7  8  1  0  0  0  0
  8  9  1  0  0  0  0
  9 10  1  0  0  0  0
 10 12  1  0  0  0  0
 12 11  1  0  0  0  0
 13 14  1  0  0  0  0
 14 19  2  0  0  0  0
 14 15  1  0  0  0  0
 15 16  2  0  0  0  0
 16 17  1  0  0  0  0
 17 20  1  0  0  0  0
 18 22  1  0  0  0  0
 18 17  2  0  0  0  0
 19 18  1  0  0  0  0
 20 21  1  0  0  0  0
 22 23  1  0  0  0  0
M  END
>  <MODEL>
4

>  <REMARK>
 VINA RESULT:    -6.118      1.886      2.889
 INTER + INTRA:         -10.480
 INTER:                  -9.604
 INTRA:                  -0.876
 UNBOUND:                -0.785
  Name = CHEMBL80297
  12 active torsions:
  status: ('A' for Active; 'I' for Inactive)
    1  A    between atoms: C_1  and  C_2
    2  A    between atoms: C_2  and  C_3
    3  A    between atoms: C_3  and  C_4
    4  A    between atoms: C_4  and  C_5
    5  A    between atoms: C_5  and  C_6
    6  A    between atoms: C_6  and  C_7
    7  A    between atoms: C_7  and  C_8
    8  A    between atoms: C_8  and  C_9
    9  A    between atoms: N_11  and  C_12
   10  A    between atoms: C_12  and  C_13
   11  A    between atoms: C_16  and  O_17
   12  A    between atoms: C_18  and  O_19
                            x       y       z     vdW  Elec       q    Type
                         _______ _______ _______ _____ _____    ______ ____

>  <TORSDO>
F 11

>  <SCORE>
-6.118

>  <RMSD_LB>
1.886

>  <RMSD_UB>
2.889

$$$$
CHEMBL80297
 OpenBabel10172500243D

 23 23  0  0  0  0  0  0  0  0999 V2000
  143.6810  140.0590  150.3710 C   0  0  0  0  0  0  0  0  0  0  0  0
  144.1640  139.5620  149.3580 O   0  0  0  0  0  0  0  0  0  0  0  0
  144.2840  141.0600  151.0920 N   0  0  0  0  0  0  0  0  0  0  0  0
  143.8410  141.4020  151.9020 H   0  0  0  0  0  0  0  0  0  0  0  0
  142.3490  139.5900  150.9270 C   0  0  0  0  0  2  0  0  0  0  0  0
  142.2010  138.0710  150.9190 C   0  0  0  0  0  2  0  0  0  0  0  0
  142.5950  137.4470  152.2580 C   0  0  0  0  0  2  0  0  0  0  0  0
  144.1100  137.3030  152.3660 C   0  0  0  0  0  2  0  0  0  0  0  0
  144.6040  137.7310  153.7450 C   0  0  0  0  0  2  0  0  0  0  0  0
  145.8810  136.9830  154.1190 C   0  0  0  0  0  2  0  0  0  0  0  0
  147.8220  138.0620  155.2910 C   0  0  0  0  0  1  0  0  0  0  0  0
  147.1100  137.8750  153.9620 C   0  0  0  0  0  2  0  0  0  0  0  0
  145.5550  141.6240  150.6930 C   0  0  0  0  0  2  0  0  0  0  0  0
  146.5120  141.7060  151.8540 C   0  0  0  0  0  0  0  0  0  0  0  0
  146.0460  141.5670  153.1750 C   0  0  0  0  0  3  0  0  0  0  0  0
  146.9240  141.6710  154.2610 C   0  0  0  0  0  3  0  0  0  0  0  0
  148.2740  141.8990  154.0200 C   0  0  0  0  0  0  0  0  0  0  0  0
  148.7430  142.0170  152.7140 C   0  0  0  0  0  0  0  0  0  0  0  0
  147.8790  141.9220  151.6320 C   0  0  0  0  0  3  0  0  0  0  0  0
  149.1820  142.0150  155.0350 O   0  0  0  0  0  0  0  0  0  0  0  0
  148.9630  142.5040  155.8050 H   0  0  0  0  0  0  0  0  0  0  0  0
  150.0720  142.2380  152.4850 O   0  0  0  0  0  0  0  0  0  0  0  0
  150.5730  142.7520  153.0870 H   0  0  0  0  0  0  0  0  0  0  0  0
  1  5  1  0  0  0  0
  1  3  1  0  0  0  0
  2  1  2  0  0  0  0
  3  4  1  0  0  0  0
  6  5  1  0  0  0  0
  6  7  1  0  0  0  0
  7  8  1  0  0  0  0
  8  9  1  0  0  0  0
  9 10  1  0  0  0  0
 12 10  1  0  0  0  0
 12 11  1  0  0  0  0
 13  3  1  0  0  0  0
 13 14  1  0  0  0  0
 14 15  1  0  0  0  0
 15 16  2  0  0  0  0
 17 16  1  0  0  0  0
 17 20  1  0  0  0  0
 18 17  2  0  0  0  0
 19 14  2  0  0  0  0
 19 18  1  0  0  0  0
 20 21  1  0  0  0  0
 22 18  1  0  0  0  0
 22 23  1  0  0  0  0
M  END
>  <MODEL>
5

>  <REMARK>
 VINA RESULT:    -6.114      1.701      2.312
 INTER + INTRA:         -10.474
 INTER:                  -9.336
 INTRA:                  -1.138
 UNBOUND:                -0.785
  Name = CHEMBL80297
  12 active torsions:
  status: ('A' for Active; 'I' for Inactive)
    1  A    between atoms: C_1  and  C_2
    2  A    between atoms: C_2  and  C_3
    3  A    between atoms: C_3  and  C_4
    4  A    between atoms: C_4  and  C_5
    5  A    between atoms: C_5  and  C_6
    6  A    between atoms: C_6  and  C_7
    7  A    between atoms: C_7  and  C_8
    8  A    between atoms: C_8  and  C_9
    9  A    between atoms: N_11  and  C_12
   10  A    between atoms: C_12  and  C_13
   11  A    between atoms: C_16  and  O_17
   12  A    between atoms: C_18  and  O_19
                            x       y       z     vdW  Elec       q    Type
                         _______ _______ _______ _____ _____    ______ ____

>  <TORSDO>
F 11

>  <SCORE>
-6.114

>  <RMSD_LB>
1.701

>  <RMSD_UB>
2.312

$$$$
CHEMBL80297
 OpenBabel10172500243D

 23 23  0  0  0  0  0  0  0  0999 V2000
  145.3780  140.1870  148.9880 C   0  0  0  0  0  0  0  0  0  0  0  0
  144.3240  140.3970  149.5800 O   0  0  0  0  0  0  0  0  0  0  0  0
  146.4330  141.0670  148.9740 N   0  0  0  0  0  0  0  0  0  0  0  0
  147.2440  140.8350  148.4670 H   0  0  0  0  0  0  0  0  0  0  0  0
  145.6040  138.9130  148.1970 C   0  0  0  0  0  2  0  0  0  0  0  0
  147.0800  138.5500  148.0580 C   0  0  0  0  0  2  0  0  0  0  0  0
  147.3710  137.1270  148.5360 C   0  0  0  0  0  2  0  0  0  0  0  0
  148.3830  136.4440  147.6230 C   0  0  0  0  0  2  0  0  0  0  0  0
  148.3380  137.0350  146.2160 C   0  0  0  0  0  2  0  0  0  0  0  0
  149.7130  136.9680  145.5570 C   0  0  0  0  0  2  0  0  0  0  0  0
  148.9930  139.2720  144.8690 C   0  0  0  0  0  1  0  0  0  0  0  0
  150.1760  138.3490  145.1010 C   0  0  0  0  0  2  0  0  0  0  0  0
  146.3820  142.3260  149.6840 C   0  0  0  0  0  2  0  0  0  0  0  0
  146.9540  142.2000  151.0720 C   0  0  0  0  0  0  0  0  0  0  0  0
  148.3320  141.9790  151.2590 C   0  0  0  0  0  3  0  0  0  0  0  0
  148.8680  141.8310  152.5440 C   0  0  0  0  0  3  0  0  0  0  0  0
  148.0240  141.9230  153.6440 C   0  0  0  0  0  0  0  0  0  0  0  0
  146.6630  142.1610  153.4660 C   0  0  0  0  0  0  0  0  0  0  0  0
  146.1220  142.3020  152.1960 C   0  0  0  0  0  3  0  0  0  0  0  0
  148.4830  141.7830  154.9240 O   0  0  0  0  0  0  0  0  0  0  0  0
  147.9580  142.0750  155.6440 H   0  0  0  0  0  0  0  0  0  0  0  0
  145.8400  142.2530  154.5520 O   0  0  0  0  0  0  0  0  0  0  0  0
  145.4610  141.4790  154.9200 H   0  0  0  0  0  0  0  0  0  0  0  0
  1  2  2  0  0  0  0
  3  1  1  0  0  0  0
  3 13  1  0  0  0  0
  4  3  1  0  0  0  0
  5  1  1  0  0  0  0
  6  5  1  0  0  0  0
  6  7  1  0  0  0  0
  8  7  1  0  0  0  0
  9  8  1  0  0  0  0
 10  9  1  0  0  0  0
 11 12  1  0  0  0  0
 12 10  1  0  0  0  0
 13 14  1  0  0  0  0
 14 15  2  0  0  0  0
 14 19  1  0  0  0  0
 15 16  1  0  0  0  0
 16 17  2  0  0  0  0
 17 20  1  0  0  0  0
 18 17  1  0  0  0  0
 18 22  1  0  0  0  0
 19 18  2  0  0  0  0
 20 21  1  0  0  0  0
 22 23  1  0  0  0  0
M  END
>  <MODEL>
6

>  <REMARK>
 VINA RESULT:    -5.930      3.009      4.036
 INTER + INTRA:         -10.182
 INTER:                  -9.229
 INTRA:                  -0.953
 UNBOUND:                -0.785
  Name = CHEMBL80297
  12 active torsions:
  status: ('A' for Active; 'I' for Inactive)
    1  A    between atoms: C_1  and  C_2
    2  A    between atoms: C_2  and  C_3
    3  A    between atoms: C_3  and  C_4
    4  A    between atoms: C_4  and  C_5
    5  A    between atoms: C_5  and  C_6
    6  A    between atoms: C_6  and  C_7
    7  A    between atoms: C_7  and  C_8
    8  A    between atoms: C_8  and  C_9
    9  A    between atoms: N_11  and  C_12
   10  A    between atoms: C_12  and  C_13
   11  A    between atoms: C_16  and  O_17
   12  A    between atoms: C_18  and  O_19
                            x       y       z     vdW  Elec       q    Type
                         _______ _______ _______ _____ _____    ______ ____

>  <TORSDO>
F 11

>  <SCORE>
-5.930

>  <RMSD_LB>
3.009

>  <RMSD_UB>
4.036

$$$$
CHEMBL80297
 OpenBabel10172500243D

 23 23  0  0  0  0  0  0  0  0999 V2000
  146.5370  138.0370  150.5380 C   0  0  0  0  0  0  0  0  0  0  0  0
  147.4370  138.5300  151.2110 O   0  0  0  0  0  0  0  0  0  0  0  0
  145.5720  137.2030  151.0470 N   0  0  0  0  0  0  0  0  0  0  0  0
  144.8870  136.8370  150.4430 H   0  0  0  0  0  0  0  0  0  0  0  0
  146.4210  138.3080  149.0500 C   0  0  0  0  0  2  0  0  0  0  0  0
  146.6960  139.7640  148.6840 C   0  0  0  0  0  2  0  0  0  0  0  0
  145.7510  140.7270  149.4020 C   0  0  0  0  0  2  0  0  0  0  0  0
  146.5300  141.8520  150.0750 C   0  0  0  0  0  2  0  0  0  0  0  0
  145.6370  142.6430  151.0280 C   0  0  0  0  0  2  0  0  0  0  0  0
  145.9190  142.2590  152.4780 C   0  0  0  0  0  2  0  0  0  0  0  0
  147.7960  141.8710  154.1000 C   0  0  0  0  0  1  0  0  0  0  0  0
  147.3540  141.7700  152.6510 C   0  0  0  0  0  2  0  0  0  0  0  0
  145.5370  136.8500  152.4490 C   0  0  0  0  0  2  0  0  0  0  0  0
  144.5970  137.7410  153.2190 C   0  0  0  0  0  0  0  0  0  0  0  0
  145.0990  138.7730  154.0350 C   0  0  0  0  0  3  0  0  0  0  0  0
  144.2340  139.5870  154.7770 C   0  0  0  0  0  3  0  0  0  0  0  0
  142.8640  139.3760  154.6890 C   0  0  0  0  0  0  0  0  0  0  0  0
  142.3610  138.3690  153.8690 C   0  0  0  0  0  0  0  0  0  0  0  0
  143.2110  137.5530  153.1340 C   0  0  0  0  0  3  0  0  0  0  0  0
  141.9670  140.1310  155.3910 O   0  0  0  0  0  0  0  0  0  0  0  0
  141.3800  140.7040  154.9360 H   0  0  0  0  0  0  0  0  0  0  0  0
  141.0120  138.1690  153.7850 O   0  0  0  0  0  0  0  0  0  0  0  0
  140.6300  137.8750  152.9810 H   0  0  0  0  0  0  0  0  0  0  0  0
  1  3  1  0  0  0  0
  1  2  2  0  0  0  0
  3 13  1  0  0  0  0
  4  3  1  0  0  0  0
  5  1  1  0  0  0  0
  6  5  1  0  0  0  0
  6  7  1  0  0  0  0
  7  8  1  0  0  0  0
  8  9  1  0  0  0  0
  9 10  1  0  0  0  0
 10 12  1  0  0  0  0
 12 11  1  0  0  0  0
 13 14  1  0  0  0  0
 14 15  1  0  0  0  0
 15 16  2  0  0  0  0
 17 16  1  0  0  0  0
 17 20  1  0  0  0  0
 18 17  2  0  0  0  0
 19 14  2  0  0  0  0
 19 18  1  0  0  0  0
 21 20  1  0  0  0  0
 22 18  1  0  0  0  0
 23 22  1  0  0  0  0
M  END
>  <MODEL>
7

>  <REMARK>
 VINA RESULT:    -5.918      2.591      4.871
 INTER + INTRA:         -10.163
 INTER:                  -8.880
 INTRA:                  -1.283
 UNBOUND:                -0.785
  Name = CHEMBL80297
  12 active torsions:
  status: ('A' for Active; 'I' for Inactive)
    1  A    between atoms: C_1  and  C_2
    2  A    between atoms: C_2  and  C_3
    3  A    between atoms: C_3  and  C_4
    4  A    between atoms: C_4  and  C_5
    5  A    between atoms: C_5  and  C_6
    6  A    between atoms: C_6  and  C_7
    7  A    between atoms: C_7  and  C_8
    8  A    between atoms: C_8  and  C_9
    9  A    between atoms: N_11  and  C_12
   10  A    between atoms: C_12  and  C_13
   11  A    between atoms: C_16  and  O_17
   12  A    between atoms: C_18  and  O_19
                            x       y       z     vdW  Elec       q    Type
                         _______ _______ _______ _____ _____    ______ ____

>  <TORSDO>
F 11

>  <SCORE>
-5.918

>  <RMSD_LB>
2.591

>  <RMSD_UB>
4.871

$$$$
CHEMBL80297
 OpenBabel10172500243D

 23 23  0  0  0  0  0  0  0  0999 V2000
  136.6960  135.4480  150.4810 C   0  0  0  0  0  0  0  0  0  0  0  0
  136.7410  135.4830  149.2550 O   0  0  0  0  0  0  0  0  0  0  0  0
  137.3170  136.3640  151.2940 N   0  0  0  0  0  0  0  0  0  0  0  0
  137.2440  136.2650  152.2710 H   0  0  0  0  0  0  0  0  0  0  0  0
  135.9390  134.3570  151.2160 C   0  0  0  0  0  2  0  0  0  0  0  0
  135.3880  134.8160  152.5620 C   0  0  0  0  0  2  0  0  0  0  0  0
  134.0310  135.5070  152.4250 C   0  0  0  0  0  2  0  0  0  0  0  0
  133.1030  134.7060  151.5180 C   0  0  0  0  0  2  0  0  0  0  0  0
  132.6130  135.5550  150.3480 C   0  0  0  0  0  2  0  0  0  0  0  0
  133.1620  135.0240  149.0260 C   0  0  0  0  0  2  0  0  0  0  0  0
  133.9150  132.6650  148.6170 C   0  0  0  0  0  1  0  0  0  0  0  0
  132.7190  133.5850  148.7820 C   0  0  0  0  0  2  0  0  0  0  0  0
  138.0740  137.4710  150.7520 C   0  0  0  0  0  2  0  0  0  0  0  0
  139.2460  137.8220  151.6320 C   0  0  0  0  0  0  0  0  0  0  0  0
  140.5250  137.3020  151.3590 C   0  0  0  0  0  3  0  0  0  0  0  0
  141.6140  137.6000  152.1880 C   0  0  0  0  0  3  0  0  0  0  0  0
  141.4220  138.4330  153.2830 C   0  0  0  0  0  0  0  0  0  0  0  0
  140.1620  138.9660  153.5470 C   0  0  0  0  0  0  0  0  0  0  0  0
  139.0760  138.6710  152.7340 C   0  0  0  0  0  3  0  0  0  0  0  0
  142.4410  138.7580  154.1340 O   0  0  0  0  0  0  0  0  0  0  0  0
  142.5360  139.6410  154.4350 H   0  0  0  0  0  0  0  0  0  0  0  0
  139.9820  139.7860  154.6240 O   0  0  0  0  0  0  0  0  0  0  0  0
  140.7170  140.2160  155.0150 H   0  0  0  0  0  0  0  0  0  0  0  0
  1  5  1  0  0  0  0
  1  3  1  0  0  0  0
  2  1  2  0  0  0  0
  3  4  1  0  0  0  0
  5  6  1  0  0  0  0
  7  6  1  0  0  0  0
  8  7  1  0  0  0  0
  9  8  1  0  0  0  0
 10  9  1  0  0  0  0
 11 12  1  0  0  0  0
 12 10  1  0  0  0  0
 13  3  1  0  0  0  0
 13 14  1  0  0  0  0
 14 19  1  0  0  0  0
 15 14  2  0  0  0  0
 15 16  1  0  0  0  0
 16 17  2  0  0  0  0
 17 18  1  0  0  0  0
 17 20  1  0  0  0  0
 18 22  1  0  0  0  0
 19 18  2  0  0  0  0
 20 21  1  0  0  0  0
 22 23  1  0  0  0  0
M  END
>  <MODEL>
8

>  <REMARK>
 VINA RESULT:    -5.721      7.960     10.427
 INTER + INTRA:          -9.850
 INTER:                  -8.918
 INTRA:                  -0.933
 UNBOUND:                -0.785
  Name = CHEMBL80297
  12 active torsions:
  status: ('A' for Active; 'I' for Inactive)
    1  A    between atoms: C_1  and  C_2
    2  A    between atoms: C_2  and  C_3
    3  A    between atoms: C_3  and  C_4
    4  A    between atoms: C_4  and  C_5
    5  A    between atoms: C_5  and  C_6
    6  A    between atoms: C_6  and  C_7
    7  A    between atoms: C_7  and  C_8
    8  A    between atoms: C_8  and  C_9
    9  A    between atoms: N_11  and  C_12
   10  A    between atoms: C_12  and  C_13
   11  A    between atoms: C_16  and  O_17
   12  A    between atoms: C_18  and  O_19
                            x       y       z     vdW  Elec       q    Type
                         _______ _______ _______ _____ _____    ______ ____

>  <TORSDO>
F 11

>  <SCORE>
-5.721

>  <RMSD_LB>
7.960

>  <RMSD_UB>
10.427

$$$$
CHEMBL80297
 OpenBabel10172500243D

 23 23  0  0  0  0  0  0  0  0999 V2000
  145.9060  140.3300  148.6970 C   0  0  0  0  0  0  0  0  0  0  0  0
  144.8060  140.2240  149.2310 O   0  0  0  0  0  0  0  0  0  0  0  0
  146.7450  141.4010  148.8850 N   0  0  0  0  0  0  0  0  0  0  0  0
  147.6090  141.4210  148.4140 H   0  0  0  0  0  0  0  0  0  0  0  0
  146.4370  139.2650  147.7560 C   0  0  0  0  0  2  0  0  0  0  0  0
  145.4080  138.1840  147.4360 C   0  0  0  0  0  2  0  0  0  0  0  0
  145.5650  136.9550  148.3320 C   0  0  0  0  0  2  0  0  0  0  0  0
  147.0300  136.7330  148.6950 C   0  0  0  0  0  2  0  0  0  0  0  0
  147.1760  135.6110  149.7210 C   0  0  0  0  0  2  0  0  0  0  0  0
  148.3100  134.6670  149.3330 C   0  0  0  0  0  2  0  0  0  0  0  0
  150.7570  135.1920  149.1340 C   0  0  0  0  0  1  0  0  0  0  0  0
  149.3810  135.3930  148.5240 C   0  0  0  0  0  2  0  0  0  0  0  0
  146.3920  142.4990  149.7580 C   0  0  0  0  0  2  0  0  0  0  0  0
  146.9170  142.2850  151.1540 C   0  0  0  0  0  0  0  0  0  0  0  0
  148.2690  141.9560  151.3660 C   0  0  0  0  0  3  0  0  0  0  0  0
  148.7580  141.7270  152.6580 C   0  0  0  0  0  3  0  0  0  0  0  0
  147.8940  141.8450  153.7400 C   0  0  0  0  0  0  0  0  0  0  0  0
  146.5600  142.1900  153.5370 C   0  0  0  0  0  0  0  0  0  0  0  0
  146.0650  142.4120  152.2600 C   0  0  0  0  0  3  0  0  0  0  0  0
  148.3070  141.6300  155.0250 O   0  0  0  0  0  0  0  0  0  0  0  0
  147.8270  141.0450  155.5790 H   0  0  0  0  0  0  0  0  0  0  0  0
  145.7170  142.3060  154.6060 O   0  0  0  0  0  0  0  0  0  0  0  0
  146.0320  142.6560  155.4160 H   0  0  0  0  0  0  0  0  0  0  0  0
  1  3  1  0  0  0  0
  1  2  2  0  0  0  0
  3 13  1  0  0  0  0
  4  3  1  0  0  0  0
  5  1  1  0  0  0  0
  6  5  1  0  0  0  0
  6  7  1  0  0  0  0
  7  8  1  0  0  0  0
  8  9  1  0  0  0  0
 10  9  1  0  0  0  0
 12 11  1  0  0  0  0
 12 10  1  0  0  0  0
 13 14  1  0  0  0  0
 14 15  2  0  0  0  0
 14 19  1  0  0  0  0
 15 16  1  0  0  0  0
 16 17  2  0  0  0  0
 17 20  1  0  0  0  0
 18 17  1  0  0  0  0
 18 22  1  0  0  0  0
 19 18  2  0  0  0  0
 20 21  1  0  0  0  0
 22 23  1  0  0  0  0
M  END
>  <MODEL>
9

>  <REMARK>
 VINA RESULT:    -5.692      2.431      2.797
 INTER + INTRA:          -9.805
 INTER:                  -9.020
 INTRA:                  -0.785
 UNBOUND:                -0.785
  Name = CHEMBL80297
  12 active torsions:
  status: ('A' for Active; 'I' for Inactive)
    1  A    between atoms: C_1  and  C_2
    2  A    between atoms: C_2  and  C_3
    3  A    between atoms: C_3  and  C_4
    4  A    between atoms: C_4  and  C_5
    5  A    between atoms: C_5  and  C_6
    6  A    between atoms: C_6  and  C_7
    7  A    between atoms: C_7  and  C_8
    8  A    between atoms: C_8  and  C_9
    9  A    between atoms: N_11  and  C_12
   10  A    between atoms: C_12  and  C_13
   11  A    between atoms: C_16  and  O_17
   12  A    between atoms: C_18  and  O_19
                            x       y       z     vdW  Elec       q    Type
                         _______ _______ _______ _____ _____    ______ ____

>  <TORSDO>
F 11

>  <SCORE>
-5.692

>  <RMSD_LB>
2.431

>  <RMSD_UB>
2.797

$$$$
