CHEMBL4640124
 OpenBabel10172500483D

 33 34  0  0  1  0  0  0  0  0999 V2000
  136.3410  136.1880  155.0020 C   0  0  2  0  0  3  0  0  0  0  0  0
  135.2020  137.0080  155.3020 O   0  0  0  0  0  0  0  0  0  0  0  0
  135.5010  137.8610  155.6550 H   0  0  0  0  0  0  0  0  0  0  0  0
  137.5560  136.7350  155.7460 C   0  0  0  0  0  2  0  0  0  0  0  0
  137.8680  138.1550  155.3390 C   0  0  0  0  0  0  0  0  0  0  0  0
  137.0090  139.0360  155.3870 O   0  0  0  0  0  0  0  0  0  0  0  0
  139.2830  138.4300  154.8760 C   0  0  0  0  0  2  0  0  0  0  0  0
  139.3970  138.2540  153.3680 C   0  0  0  0  0  2  0  0  0  0  0  0
  142.3560  137.2040  151.2070 C   0  0  0  0  0  0  0  0  0  0  0  0
  141.0580  137.5170  151.6210 C   0  0  0  0  0  3  0  0  0  0  0  0
  140.7990  137.9020  152.9460 C   0  0  0  0  0  0  0  0  0  0  0  0
  141.8520  137.9470  153.8680 C   0  0  0  0  0  3  0  0  0  0  0  0
  143.1510  137.6310  153.4680 C   0  0  0  0  0  3  0  0  0  0  0  0
  143.3960  137.2660  152.1430 C   0  0  0  0  0  0  0  0  0  0  0  0
  141.6970  136.2210  149.1370 C   0  0  0  0  0  1  0  0  0  0  0  0
  142.7020  136.8370  149.9320 O   0  0  0  0  0  0  0  0  0  0  0  0
  144.6720  136.9630  151.7490 O   0  0  0  0  0  0  0  0  0  0  0  0
  145.0930  136.1910  152.0750 H   0  0  0  0  0  0  0  0  0  0  0  0
  136.5150  136.1890  153.4830 C   0  0  0  0  0  2  0  0  0  0  0  0
  135.2840  135.7220  152.7390 C   0  0  0  0  0  0  0  0  0  0  0  0
  134.2860  136.4390  152.6650 O   0  0  0  0  0  0  0  0  0  0  0  0
  135.3130  134.3280  152.1500 C   0  0  0  0  0  2  0  0  0  0  0  0
  133.9060  133.8900  151.7520 C   0  0  0  0  0  2  0  0  0  0  0  0
  133.7520  133.7210  150.2650 C   0  0  0  0  0  0  0  0  0  0  0  0
  134.1150  132.5220  149.6500 C   0  0  0  0  0  3  0  0  0  0  0  0
  133.9940  132.3760  148.2690 C   0  0  0  0  0  3  0  0  0  0  0  0
  133.5030  133.4290  147.4870 C   0  0  0  0  0  0  0  0  0  0  0  0
  133.1230  134.6360  148.0840 C   0  0  0  0  0  0  0  0  0  0  0  0
  133.2500  134.7660  149.4750 C   0  0  0  0  0  3  0  0  0  0  0  0
  133.4060  133.2350  146.1370 O   0  0  0  0  0  0  0  0  0  0  0  0
  133.5970  132.3940  145.7710 H   0  0  0  0  0  0  0  0  0  0  0  0
  132.6300  135.7650  147.4880 O   0  0  0  0  0  0  0  0  0  0  0  0
  132.6760  136.9820  148.2170 C   0  0  0  0  0  1  0  0  0  0  0  0
  1 19  1  6  0  0  0
  1  2  1  0  0  0  0
  1  4  1  0  0  0  0
  2  3  1  0  0  0  0
  5  6  2  0  0  0  0
  5  4  1  0  0  0  0
  7  5  1  0  0  0  0
  8  7  1  0  0  0  0
  9 10  2  0  0  0  0
  9 14  1  0  0  0  0
 10 11  1  0  0  0  0
 11  8  1  0  0  0  0
 11 12  2  0  0  0  0
 13 12  1  0  0  0  0
 14 13  2  0  0  0  0
 15 16  1  0  0  0  0
 16  9  1  0  0  0  0
 17 18  1  0  0  0  0
 17 14  1  0  0  0  0
 20 19  1  0  0  0  0
 21 20  2  0  0  0  0
 22 20  1  0  0  0  0
 23 22  1  0  0  0  0
 24 23  1  0  0  0  0
 25 24  1  0  0  0  0
 26 25  2  0  0  0  0
 27 28  2  0  0  0  0
 27 26  1  0  0  0  0
 28 29  1  0  0  0  0
 29 24  2  0  0  0  0
 30 27  1  0  0  0  0
 31 30  1  0  0  0  0
 32 28  1  0  0  0  0
 32 33  1  0  0  0  0
M  END
>  <MODEL>
1

>  <REMARK>
 VINA RESULT:    -7.922      0.000      0.000
 INTER + INTRA:         -15.432
 INTER:                 -13.983
 INTRA:                  -1.449
 UNBOUND:                -1.257
  Name = CHEMBL4640124
  17 active torsions:
  status: ('A' for Active; 'I' for Inactive)
    1  A    between atoms: C_1  and  O_2
    2  A    between atoms: O_2  and  C_3
    3  A    between atoms: C_5  and  C_6
    4  A    between atoms: C_6  and  C_7
    5  A    between atoms: C_7  and  C_8
    6  A    between atoms: C_8  and  C_10
    7  A    between atoms: C_10  and  C_11
    8  A    between atoms: C_11  and  O_12
    9  A    between atoms: C_11  and  C_13
   10  A    between atoms: C_13  and  C_14
   11  A    between atoms: C_14  and  C_16
   12  A    between atoms: C_16  and  C_17
   13  A    between atoms: C_17  and  C_18
   14  A    between atoms: C_21  and  O_22
   15  A    between atoms: C_23  and  O_24
   16  A    between atoms: O_24  and  C_25
   17  A    between atoms: C_29  and  O_30
                            x       y       z     vdW  Elec       q    Type
                         _______ _______ _______ _____ _____    ______ ____

>  <TORSDO>
F 15

>  <SCORE>
-7.922

>  <RMSD_LB>
0.000

>  <RMSD_UB>
0.000

$$$$
CHEMBL4640124
 OpenBabel10172500483D

 33 34  0  0  1  0  0  0  0  0999 V2000
  136.0720  136.2090  155.4740 C   0  0  2  0  0  3  0  0  0  0  0  0
  135.2540  137.2570  154.9350 O   0  0  0  0  0  0  0  0  0  0  0  0
  134.6630  136.8920  154.2570 H   0  0  0  0  0  0  0  0  0  0  0  0
  137.4860  136.7420  155.6840 C   0  0  0  0  0  2  0  0  0  0  0  0
  137.6910  138.0720  154.9990 C   0  0  0  0  0  0  0  0  0  0  0  0
  137.1290  139.0910  155.4030 O   0  0  0  0  0  0  0  0  0  0  0  0
  138.6170  138.0810  153.8010 C   0  0  0  0  0  2  0  0  0  0  0  0
  140.0600  138.2840  154.2430 C   0  0  0  0  0  2  0  0  0  0  0  0
  143.3370  137.4780  152.4700 C   0  0  0  0  0  0  0  0  0  0  0  0
  142.4140  137.8630  153.4480 C   0  0  0  0  0  3  0  0  0  0  0  0
  141.0390  137.8840  153.1690 C   0  0  0  0  0  0  0  0  0  0  0  0
  140.5900  137.5400  151.8890 C   0  0  0  0  0  3  0  0  0  0  0  0
  141.5010  137.1590  150.9030 C   0  0  0  0  0  3  0  0  0  0  0  0
  142.8640  137.1260  151.1980 C   0  0  0  0  0  0  0  0  0  0  0  0
  145.1540  136.7620  153.8360 C   0  0  0  0  0  1  0  0  0  0  0  0
  144.6930  137.4110  152.6580 O   0  0  0  0  0  0  0  0  0  0  0  0
  143.7570  136.7460  150.2320 O   0  0  0  0  0  0  0  0  0  0  0  0
  144.5870  136.3850  150.4770 H   0  0  0  0  0  0  0  0  0  0  0  0
  136.0100  135.0350  154.4960 C   0  0  0  0  0  2  0  0  0  0  0  0
  134.6220  134.7810  153.9530 C   0  0  0  0  0  0  0  0  0  0  0  0
  133.6260  135.0420  154.6270 O   0  0  0  0  0  0  0  0  0  0  0  0
  134.5160  134.1400  152.5850 C   0  0  0  0  0  2  0  0  0  0  0  0
  135.8710  134.1570  151.8830 C   0  0  0  0  0  2  0  0  0  0  0  0
  135.9980  135.2900  150.9000 C   0  0  0  0  0  0  0  0  0  0  0  0
  136.9280  136.3080  151.1160 C   0  0  0  0  0  3  0  0  0  0  0  0
  137.0280  137.3690  150.2170 C   0  0  0  0  0  3  0  0  0  0  0  0
  136.2000  137.4200  149.0880 C   0  0  0  0  0  0  0  0  0  0  0  0
  135.2690  136.4030  148.8470 C   0  0  0  0  0  0  0  0  0  0  0  0
  135.1830  135.3430  149.7610 C   0  0  0  0  0  3  0  0  0  0  0  0
  136.3380  138.4820  148.2390 O   0  0  0  0  0  0  0  0  0  0  0  0
  137.1560  138.9370  148.1870 H   0  0  0  0  0  0  0  0  0  0  0  0
  134.3840  136.2860  147.8100 O   0  0  0  0  0  0  0  0  0  0  0  0
  133.0540  136.7390  148.0110 C   0  0  0  0  0  1  0  0  0  0  0  0
  1 19  1  6  0  0  0
  1  4  1  0  0  0  0
  2  1  1  0  0  0  0
  3  2  1  0  0  0  0
  5  6  2  0  0  0  0
  5  4  1  0  0  0  0
  7  8  1  0  0  0  0
  7  5  1  0  0  0  0
  9 16  1  0  0  0  0
  9 10  1  0  0  0  0
 11 10  2  0  0  0  0
 11  8  1  0  0  0  0
 12 11  1  0  0  0  0
 13 14  1  0  0  0  0
 13 12  2  0  0  0  0
 14  9  2  0  0  0  0
 16 15  1  0  0  0  0
 17 18  1  0  0  0  0
 17 14  1  0  0  0  0
 20 19  1  0  0  0  0
 20 21  2  0  0  0  0
 22 20  1  0  0  0  0
 23 22  1  0  0  0  0
 24 25  1  0  0  0  0
 24 23  1  0  0  0  0
 26 25  2  0  0  0  0
 27 26  1  0  0  0  0
 28 27  2  0  0  0  0
 28 29  1  0  0  0  0
 29 24  2  0  0  0  0
 30 27  1  0  0  0  0
 31 30  1  0  0  0  0
 32 33  1  0  0  0  0
 32 28  1  0  0  0  0
M  END
>  <MODEL>
2

>  <REMARK>
 VINA RESULT:    -7.619      1.776      2.866
 INTER + INTRA:         -14.888
 INTER:                 -12.730
 INTRA:                  -2.158
 UNBOUND:                -1.257
  Name = CHEMBL4640124
  17 active torsions:
  status: ('A' for Active; 'I' for Inactive)
    1  A    between atoms: C_1  and  O_2
    2  A    between atoms: O_2  and  C_3
    3  A    between atoms: C_5  and  C_6
    4  A    between atoms: C_6  and  C_7
    5  A    between atoms: C_7  and  C_8
    6  A    between atoms: C_8  and  C_10
    7  A    between atoms: C_10  and  C_11
    8  A    between atoms: C_11  and  O_12
    9  A    between atoms: C_11  and  C_13
   10  A    between atoms: C_13  and  C_14
   11  A    between atoms: C_14  and  C_16
   12  A    between atoms: C_16  and  C_17
   13  A    between atoms: C_17  and  C_18
   14  A    between atoms: C_21  and  O_22
   15  A    between atoms: C_23  and  O_24
   16  A    between atoms: O_24  and  C_25
   17  A    between atoms: C_29  and  O_30
                            x       y       z     vdW  Elec       q    Type
                         _______ _______ _______ _____ _____    ______ ____

>  <TORSDO>
F 15

>  <SCORE>
-7.619

>  <RMSD_LB>
1.776

>  <RMSD_UB>
2.866

$$$$
CHEMBL4640124
 OpenBabel10172500483D

 33 34  0  0  1  0  0  0  0  0999 V2000
  135.8090  135.9440  155.4540 C   0  0  2  0  0  3  0  0  0  0  0  0
  135.0080  137.0900  155.1320 O   0  0  0  0  0  0  0  0  0  0  0  0
  135.2180  137.3910  154.2340 H   0  0  0  0  0  0  0  0  0  0  0  0
  137.2050  136.4110  155.8550 C   0  0  0  0  0  2  0  0  0  0  0  0
  137.2790  137.9140  155.9750 C   0  0  0  0  0  0  0  0  0  0  0  0
  136.7310  138.5080  156.9040 O   0  0  0  0  0  0  0  0  0  0  0  0
  138.0600  138.6410  154.9000 C   0  0  0  0  0  2  0  0  0  0  0  0
  138.8330  137.6520  154.0390 C   0  0  0  0  0  2  0  0  0  0  0  0
  138.9360  138.8410  150.4190 C   0  0  0  0  0  0  0  0  0  0  0  0
  139.2190  138.7030  151.7810 C   0  0  0  0  0  3  0  0  0  0  0  0
  138.5000  137.7980  152.5770 C   0  0  0  0  0  0  0  0  0  0  0  0
  137.4690  137.0440  152.0020 C   0  0  0  0  0  3  0  0  0  0  0  0
  137.1740  137.1760  150.6460 C   0  0  0  0  0  3  0  0  0  0  0  0
  137.9080  138.0680  149.8620 C   0  0  0  0  0  0  0  0  0  0  0  0
  139.3300  141.0750  149.6870 C   0  0  0  0  0  1  0  0  0  0  0  0
  139.5980  139.6850  149.5640 O   0  0  0  0  0  0  0  0  0  0  0  0
  137.6220  138.1920  148.5290 O   0  0  0  0  0  0  0  0  0  0  0  0
  137.9420  137.5550  147.9190 H   0  0  0  0  0  0  0  0  0  0  0  0
  135.8090  135.0300  154.2280 C   0  0  0  0  0  2  0  0  0  0  0  0
  134.4210  134.6910  153.7330 C   0  0  0  0  0  0  0  0  0  0  0  0
  133.4360  134.8870  154.4450 O   0  0  0  0  0  0  0  0  0  0  0  0
  134.3050  134.0510  152.3660 C   0  0  0  0  0  2  0  0  0  0  0  0
  134.2680  135.1220  151.2790 C   0  0  0  0  0  2  0  0  0  0  0  0
  134.0690  134.5430  149.9040 C   0  0  0  0  0  0  0  0  0  0  0  0
  132.8060  134.1120  149.4970 C   0  0  0  0  0  3  0  0  0  0  0  0
  132.6280  133.5550  148.2320 C   0  0  0  0  0  3  0  0  0  0  0  0
  133.7140  133.4260  147.3570 C   0  0  0  0  0  0  0  0  0  0  0  0
  134.9870  133.8620  147.7410 C   0  0  0  0  0  0  0  0  0  0  0  0
  135.1480  134.4220  149.0170 C   0  0  0  0  0  3  0  0  0  0  0  0
  133.4860  132.8710  146.1280 O   0  0  0  0  0  0  0  0  0  0  0  0
  133.4790  131.9390  146.0300 H   0  0  0  0  0  0  0  0  0  0  0  0
  136.1560  133.8150  147.0300 O   0  0  0  0  0  0  0  0  0  0  0  0
  136.6510  135.0250  146.4760 C   0  0  0  0  0  1  0  0  0  0  0  0
  1 19  1  6  0  0  0
  1  4  1  0  0  0  0
  2  1  1  0  0  0  0
  3  2  1  0  0  0  0
  4  5  1  0  0  0  0
  5  6  2  0  0  0  0
  7  5  1  0  0  0  0
  8  7  1  0  0  0  0
  9 10  1  0  0  0  0
 10 11  2  0  0  0  0
 11  8  1  0  0  0  0
 12 11  1  0  0  0  0
 13 12  2  0  0  0  0
 14  9  2  0  0  0  0
 14 13  1  0  0  0  0
 16 15  1  0  0  0  0
 16  9  1  0  0  0  0
 17 14  1  0  0  0  0
 18 17  1  0  0  0  0
 20 19  1  0  0  0  0
 20 21  2  0  0  0  0
 22 20  1  0  0  0  0
 23 22  1  0  0  0  0
 24 23  1  0  0  0  0
 25 24  1  0  0  0  0
 26 25  2  0  0  0  0
 27 28  2  0  0  0  0
 27 26  1  0  0  0  0
 28 29  1  0  0  0  0
 29 24  2  0  0  0  0
 30 27  1  0  0  0  0
 31 30  1  0  0  0  0
 32 28  1  0  0  0  0
 33 32  1  0  0  0  0
M  END
>  <MODEL>
3

>  <REMARK>
 VINA RESULT:    -7.562      2.526      3.240
 INTER + INTRA:         -14.787
 INTER:                 -12.508
 INTRA:                  -2.279
 UNBOUND:                -1.257
  Name = CHEMBL4640124
  17 active torsions:
  status: ('A' for Active; 'I' for Inactive)
    1  A    between atoms: C_1  and  O_2
    2  A    between atoms: O_2  and  C_3
    3  A    between atoms: C_5  and  C_6
    4  A    between atoms: C_6  and  C_7
    5  A    between atoms: C_7  and  C_8
    6  A    between atoms: C_8  and  C_10
    7  A    between atoms: C_10  and  C_11
    8  A    between atoms: C_11  and  O_12
    9  A    between atoms: C_11  and  C_13
   10  A    between atoms: C_13  and  C_14
   11  A    between atoms: C_14  and  C_16
   12  A    between atoms: C_16  and  C_17
   13  A    between atoms: C_17  and  C_18
   14  A    between atoms: C_21  and  O_22
   15  A    between atoms: C_23  and  O_24
   16  A    between atoms: O_24  and  C_25
   17  A    between atoms: C_29  and  O_30
                            x       y       z     vdW  Elec       q    Type
                         _______ _______ _______ _____ _____    ______ ____

>  <TORSDO>
F 15

>  <SCORE>
-7.562

>  <RMSD_LB>
2.526

>  <RMSD_UB>
3.240

$$$$
CHEMBL4640124
 OpenBabel10172500483D

 33 34  0  0  1  0  0  0  0  0999 V2000
  143.2730  139.7290  148.7700 C   0  0  2  0  0  3  0  0  0  0  0  0
  141.9910  140.0780  149.3120 O   0  0  0  0  0  0  0  0  0  0  0  0
  142.0830  140.2830  150.2560 H   0  0  0  0  0  0  0  0  0  0  0  0
  143.2560  138.2590  148.3620 C   0  0  0  0  0  2  0  0  0  0  0  0
  141.8830  137.6510  148.5170 C   0  0  0  0  0  0  0  0  0  0  0  0
  140.9710  137.9270  147.7350 O   0  0  0  0  0  0  0  0  0  0  0  0
  141.6940  136.6910  149.6730 C   0  0  0  0  0  2  0  0  0  0  0  0
  140.5030  137.1080  150.5250 C   0  0  0  0  0  2  0  0  0  0  0  0
  140.3510  138.5820  154.0360 C   0  0  0  0  0  0  0  0  0  0  0  0
  139.9790  138.1450  152.7610 C   0  0  0  0  0  3  0  0  0  0  0  0
  140.9270  137.5900  151.8880 C   0  0  0  0  0  0  0  0  0  0  0  0
  142.2650  137.4980  152.2910 C   0  0  0  0  0  3  0  0  0  0  0  0
  142.6480  137.9350  153.5590 C   0  0  0  0  0  3  0  0  0  0  0  0
  141.6930  138.4700  154.4240 C   0  0  0  0  0  0  0  0  0  0  0  0
  138.3920  138.3170  155.3690 C   0  0  0  0  0  1  0  0  0  0  0  0
  139.4910  139.1200  154.9590 O   0  0  0  0  0  0  0  0  0  0  0  0
  142.0690  138.8930  155.6710 O   0  0  0  0  0  0  0  0  0  0  0  0
  142.6990  138.4020  156.1620 H   0  0  0  0  0  0  0  0  0  0  0  0
  144.3190  140.0460  149.8390 C   0  0  0  0  0  2  0  0  0  0  0  0
  145.7250  140.1470  149.2910 C   0  0  0  0  0  0  0  0  0  0  0  0
  145.9190  140.4510  148.1140 O   0  0  0  0  0  0  0  0  0  0  0  0
  146.8640  139.8010  150.2260 C   0  0  0  0  0  2  0  0  0  0  0  0
  146.5960  138.4690  150.9210 C   0  0  0  0  0  2  0  0  0  0  0  0
  146.9110  138.5100  152.3920 C   0  0  0  0  0  0  0  0  0  0  0  0
  146.3050  137.6070  153.2670 C   0  0  0  0  0  3  0  0  0  0  0  0
  146.5800  137.6610  154.6330 C   0  0  0  0  0  3  0  0  0  0  0  0
  147.4680  138.6190  155.1380 C   0  0  0  0  0  0  0  0  0  0  0  0
  148.0940  139.5270  154.2770 C   0  0  0  0  0  0  0  0  0  0  0  0
  147.8080  139.4570  152.9050 C   0  0  0  0  0  3  0  0  0  0  0  0
  147.7010  138.6300  156.4850 O   0  0  0  0  0  0  0  0  0  0  0  0
  148.0950  139.3810  156.8850 H   0  0  0  0  0  0  0  0  0  0  0  0
  148.9800  140.5240  154.5850 O   0  0  0  0  0  0  0  0  0  0  0  0
  148.6070  141.8630  154.2970 C   0  0  0  0  0  1  0  0  0  0  0  0
  1  4  1  1  0  0  0
  1  2  1  0  0  0  0
  1 19  1  0  0  0  0
  2  3  1  0  0  0  0
  4  5  1  0  0  0  0
  5  7  1  0  0  0  0
  6  5  2  0  0  0  0
  7  8  1  0  0  0  0
  8 11  1  0  0  0  0
  9 14  1  0  0  0  0
  9 16  1  0  0  0  0
 10  9  2  0  0  0  0
 11 12  2  0  0  0  0
 11 10  1  0  0  0  0
 12 13  1  0  0  0  0
 13 14  2  0  0  0  0
 14 17  1  0  0  0  0
 16 15  1  0  0  0  0
 17 18  1  0  0  0  0
 20 19  1  0  0  0  0
 20 22  1  0  0  0  0
 21 20  2  0  0  0  0
 22 23  1  0  0  0  0
 23 24  1  0  0  0  0
 24 29  2  0  0  0  0
 24 25  1  0  0  0  0
 25 26  2  0  0  0  0
 26 27  1  0  0  0  0
 27 30  1  0  0  0  0
 28 32  1  0  0  0  0
 28 27  2  0  0  0  0
 29 28  1  0  0  0  0
 30 31  1  0  0  0  0
 33 32  1  0  0  0  0
M  END
>  <MODEL>
4

>  <REMARK>
 VINA RESULT:    -7.427      5.333     11.242
 INTER + INTRA:         -14.545
 INTER:                 -12.265
 INTRA:                  -2.281
 UNBOUND:                -1.257
  Name = CHEMBL4640124
  17 active torsions:
  status: ('A' for Active; 'I' for Inactive)
    1  A    between atoms: C_1  and  O_2
    2  A    between atoms: O_2  and  C_3
    3  A    between atoms: C_5  and  C_6
    4  A    between atoms: C_6  and  C_7
    5  A    between atoms: C_7  and  C_8
    6  A    between atoms: C_8  and  C_10
    7  A    between atoms: C_10  and  C_11
    8  A    between atoms: C_11  and  O_12
    9  A    between atoms: C_11  and  C_13
   10  A    between atoms: C_13  and  C_14
   11  A    between atoms: C_14  and  C_16
   12  A    between atoms: C_16  and  C_17
   13  A    between atoms: C_17  and  C_18
   14  A    between atoms: C_21  and  O_22
   15  A    between atoms: C_23  and  O_24
   16  A    between atoms: O_24  and  C_25
   17  A    between atoms: C_29  and  O_30
                            x       y       z     vdW  Elec       q    Type
                         _______ _______ _______ _____ _____    ______ ____

>  <TORSDO>
F 15

>  <SCORE>
-7.427

>  <RMSD_LB>
5.333

>  <RMSD_UB>
11.242

$$$$
CHEMBL4640124
 OpenBabel10172500483D

 33 34  0  0  1  0  0  0  0  0999 V2000
  135.5250  135.9520  155.5810 C   0  0  2  0  0  3  0  0  0  0  0  0
  134.8540  137.0310  154.9140 O   0  0  0  0  0  0  0  0  0  0  0  0
  134.8880  136.8900  153.9550 H   0  0  0  0  0  0  0  0  0  0  0  0
  136.9080  136.4240  156.0200 C   0  0  0  0  0  2  0  0  0  0  0  0
  137.2930  137.7240  155.3550 C   0  0  0  0  0  0  0  0  0  0  0  0
  136.9560  138.8090  155.8320 O   0  0  0  0  0  0  0  0  0  0  0  0
  138.1100  137.6190  154.0850 C   0  0  0  0  0  2  0  0  0  0  0  0
  139.5220  138.1410  154.3110 C   0  0  0  0  0  2  0  0  0  0  0  0
  140.4040  139.1140  150.7330 C   0  0  0  0  0  0  0  0  0  0  0  0
  139.7060  138.9580  151.9350 C   0  0  0  0  0  3  0  0  0  0  0  0
  140.2840  138.2810  153.0200 C   0  0  0  0  0  0  0  0  0  0  0  0
  141.5650  137.7330  152.8860 C   0  0  0  0  0  3  0  0  0  0  0  0
  142.2700  137.8770  151.6900 C   0  0  0  0  0  3  0  0  0  0  0  0
  141.6900  138.5670  150.6250 C   0  0  0  0  0  0  0  0  0  0  0  0
  139.2750  141.0180  149.8500 C   0  0  0  0  0  1  0  0  0  0  0  0
  139.9250  139.7740  149.6310 O   0  0  0  0  0  0  0  0  0  0  0  0
  142.3850  138.7140  149.4540 O   0  0  0  0  0  0  0  0  0  0  0  0
  142.1930  139.4310  148.8820 H   0  0  0  0  0  0  0  0  0  0  0  0
  135.5720  134.7750  154.6060 C   0  0  0  0  0  2  0  0  0  0  0  0
  134.3320  134.6560  153.7500 C   0  0  0  0  0  0  0  0  0  0  0  0
  133.2300  134.9810  154.1920 O   0  0  0  0  0  0  0  0  0  0  0  0
  134.4960  134.0670  152.3650 C   0  0  0  0  0  2  0  0  0  0  0  0
  135.9150  134.2980  151.8540 C   0  0  0  0  0  2  0  0  0  0  0  0
  135.9910  135.4020  150.8340 C   0  0  0  0  0  0  0  0  0  0  0  0
  137.1030  136.2450  150.7900 C   0  0  0  0  0  3  0  0  0  0  0  0
  137.1610  137.2820  149.8610 C   0  0  0  0  0  3  0  0  0  0  0  0
  136.1070  137.4860  148.9620 C   0  0  0  0  0  0  0  0  0  0  0  0
  134.9880  136.6460  148.9810 C   0  0  0  0  0  0  0  0  0  0  0  0
  134.9460  135.6060  149.9220 C   0  0  0  0  0  3  0  0  0  0  0  0
  136.2130  138.5180  148.0720 O   0  0  0  0  0  0  0  0  0  0  0  0
  135.5460  139.1750  148.0350 H   0  0  0  0  0  0  0  0  0  0  0  0
  133.8720  136.6930  148.1910 O   0  0  0  0  0  0  0  0  0  0  0  0
  132.6370  137.0460  148.7950 C   0  0  0  0  0  1  0  0  0  0  0  0
  1 19  1  6  0  0  0
  1  4  1  0  0  0  0
  2  1  1  0  0  0  0
  3  2  1  0  0  0  0
  5  6  2  0  0  0  0
  5  4  1  0  0  0  0
  7  8  1  0  0  0  0
  7  5  1  0  0  0  0
  9 10  1  0  0  0  0
 10 11  2  0  0  0  0
 11  8  1  0  0  0  0
 12 11  1  0  0  0  0
 13 12  2  0  0  0  0
 14  9  2  0  0  0  0
 14 13  1  0  0  0  0
 16 15  1  0  0  0  0
 16  9  1  0  0  0  0
 17 14  1  0  0  0  0
 18 17  1  0  0  0  0
 20 21  2  0  0  0  0
 20 19  1  0  0  0  0
 22 20  1  0  0  0  0
 23 22  1  0  0  0  0
 24 23  1  0  0  0  0
 25 24  1  0  0  0  0
 26 25  2  0  0  0  0
 27 28  2  0  0  0  0
 27 26  1  0  0  0  0
 28 29  1  0  0  0  0
 29 24  2  0  0  0  0
 30 27  1  0  0  0  0
 31 30  1  0  0  0  0
 32 33  1  0  0  0  0
 32 28  1  0  0  0  0
M  END
>  <MODEL>
5

>  <REMARK>
 VINA RESULT:    -7.421      2.149      2.925
 INTER + INTRA:         -14.535
 INTER:                 -12.188
 INTRA:                  -2.348
 UNBOUND:                -1.257
  Name = CHEMBL4640124
  17 active torsions:
  status: ('A' for Active; 'I' for Inactive)
    1  A    between atoms: C_1  and  O_2
    2  A    between atoms: O_2  and  C_3
    3  A    between atoms: C_5  and  C_6
    4  A    between atoms: C_6  and  C_7
    5  A    between atoms: C_7  and  C_8
    6  A    between atoms: C_8  and  C_10
    7  A    between atoms: C_10  and  C_11
    8  A    between atoms: C_11  and  O_12
    9  A    between atoms: C_11  and  C_13
   10  A    between atoms: C_13  and  C_14
   11  A    between atoms: C_14  and  C_16
   12  A    between atoms: C_16  and  C_17
   13  A    between atoms: C_17  and  C_18
   14  A    between atoms: C_21  and  O_22
   15  A    between atoms: C_23  and  O_24
   16  A    between atoms: O_24  and  C_25
   17  A    between atoms: C_29  and  O_30
                            x       y       z     vdW  Elec       q    Type
                         _______ _______ _______ _____ _____    ______ ____

>  <TORSDO>
F 15

>  <SCORE>
-7.421

>  <RMSD_LB>
2.149

>  <RMSD_UB>
2.925

$$$$
CHEMBL4640124
 OpenBabel10172500483D

 33 34  0  0  1  0  0  0  0  0999 V2000
  139.0790  138.4780  154.9280 C   0  0  2  0  0  3  0  0  0  0  0  0
  138.0150  139.1690  154.2570 O   0  0  0  0  0  0  0  0  0  0  0  0
  138.0480  138.9710  153.3080 H   0  0  0  0  0  0  0  0  0  0  0  0
  140.2360  138.2830  153.9540 C   0  0  0  0  0  2  0  0  0  0  0  0
  141.5330  138.8190  154.5100 C   0  0  0  0  0  0  0  0  0  0  0  0
  141.5430  139.7140  155.3560 O   0  0  0  0  0  0  0  0  0  0  0  0
  142.8060  138.1990  153.9740 C   0  0  0  0  0  2  0  0  0  0  0  0
  143.4780  139.1330  152.9760 C   0  0  0  0  0  2  0  0  0  0  0  0
  146.7560  139.3000  154.9140 C   0  0  0  0  0  0  0  0  0  0  0  0
  145.5000  138.8850  154.4590 C   0  0  0  0  0  3  0  0  0  0  0  0
  144.8210  139.6070  153.4650 C   0  0  0  0  0  0  0  0  0  0  0  0
  145.3990  140.7710  152.9430 C   0  0  0  0  0  3  0  0  0  0  0  0
  146.6490  141.1970  153.3930 C   0  0  0  0  0  3  0  0  0  0  0  0
  147.3200  140.4610  154.3690 C   0  0  0  0  0  0  0  0  0  0  0  0
  148.0520  137.3890  155.5080 C   0  0  0  0  0  1  0  0  0  0  0  0
  147.4970  138.6480  155.8660 O   0  0  0  0  0  0  0  0  0  0  0  0
  148.5510  140.8770  154.8050 O   0  0  0  0  0  0  0  0  0  0  0  0
  149.2090  141.1220  154.1840 H   0  0  0  0  0  0  0  0  0  0  0  0
  138.5050  137.1620  155.4540 C   0  0  0  0  0  2  0  0  0  0  0  0
  137.0080  137.0460  155.2750 C   0  0  0  0  0  0  0  0  0  0  0  0
  136.2480  137.8550  155.8070 O   0  0  0  0  0  0  0  0  0  0  0  0
  136.4910  135.8700  154.4740 C   0  0  0  0  0  2  0  0  0  0  0  0
  134.9990  136.0310  154.1960 C   0  0  0  0  0  2  0  0  0  0  0  0
  134.5810  135.3960  152.8970 C   0  0  0  0  0  0  0  0  0  0  0  0
  134.3700  134.0190  152.8220 C   0  0  0  0  0  3  0  0  0  0  0  0
  134.0060  133.4290  151.6130 C   0  0  0  0  0  3  0  0  0  0  0  0
  133.8450  134.2130  150.4640 C   0  0  0  0  0  0  0  0  0  0  0  0
  134.0410  135.5980  150.5190 C   0  0  0  0  0  0  0  0  0  0  0  0
  134.4050  136.1750  151.7450 C   0  0  0  0  0  3  0  0  0  0  0  0
  133.4880  133.5860  149.3030 O   0  0  0  0  0  0  0  0  0  0  0  0
  133.7700  133.9310  148.4790 H   0  0  0  0  0  0  0  0  0  0  0  0
  133.9330  136.5160  149.5100 O   0  0  0  0  0  0  0  0  0  0  0  0
  132.6390  136.9910  149.1720 C   0  0  0  0  0  1  0  0  0  0  0  0
  1  4  1  6  0  0  0
  1 19  1  0  0  0  0
  2  1  1  0  0  0  0
  3  2  1  0  0  0  0
  4  5  1  0  0  0  0
  5  6  2  0  0  0  0
  7  5  1  0  0  0  0
  8 11  1  0  0  0  0
  8  7  1  0  0  0  0
  9 16  1  0  0  0  0
 10  9  1  0  0  0  0
 11 10  2  0  0  0  0
 12 13  2  0  0  0  0
 12 11  1  0  0  0  0
 13 14  1  0  0  0  0
 14 17  1  0  0  0  0
 14  9  2  0  0  0  0
 15 16  1  0  0  0  0
 18 17  1  0  0  0  0
 20 19  1  0  0  0  0
 20 21  2  0  0  0  0
 22 20  1  0  0  0  0
 23 22  1  0  0  0  0
 24 23  1  0  0  0  0
 25 24  1  0  0  0  0
 26 25  2  0  0  0  0
 27 28  2  0  0  0  0
 27 26  1  0  0  0  0
 28 29  1  0  0  0  0
 29 24  2  0  0  0  0
 30 27  1  0  0  0  0
 31 30  1  0  0  0  0
 32 28  1  0  0  0  0
 33 32  1  0  0  0  0
M  END
>  <MODEL>
6

>  <REMARK>
 VINA RESULT:    -7.111      2.905      4.425
 INTER + INTRA:         -13.980
 INTER:                 -12.948
 INTRA:                  -1.032
 UNBOUND:                -1.257
  Name = CHEMBL4640124
  17 active torsions:
  status: ('A' for Active; 'I' for Inactive)
    1  A    between atoms: C_1  and  O_2
    2  A    between atoms: O_2  and  C_3
    3  A    between atoms: C_5  and  C_6
    4  A    between atoms: C_6  and  C_7
    5  A    between atoms: C_7  and  C_8
    6  A    between atoms: C_8  and  C_10
    7  A    between atoms: C_10  and  C_11
    8  A    between atoms: C_11  and  O_12
    9  A    between atoms: C_11  and  C_13
   10  A    between atoms: C_13  and  C_14
   11  A    between atoms: C_14  and  C_16
   12  A    between atoms: C_16  and  C_17
   13  A    between atoms: C_17  and  C_18
   14  A    between atoms: C_21  and  O_22
   15  A    between atoms: C_23  and  O_24
   16  A    between atoms: O_24  and  C_25
   17  A    between atoms: C_29  and  O_30
                            x       y       z     vdW  Elec       q    Type
                         _______ _______ _______ _____ _____    ______ ____

>  <TORSDO>
F 15

>  <SCORE>
-7.111

>  <RMSD_LB>
2.905

>  <RMSD_UB>
4.425

$$$$
CHEMBL4640124
 OpenBabel10172500483D

 33 34  0  0  1  0  0  0  0  0999 V2000
  141.4300  138.3250  152.7320 C   0  0  2  0  0  3  0  0  0  0  0  0
  141.9270  139.3100  153.6500 O   0  0  0  0  0  0  0  0  0  0  0  0
  142.6840  139.7700  153.2530 H   0  0  0  0  0  0  0  0  0  0  0  0
  141.8320  138.7200  151.3150 C   0  0  0  0  0  2  0  0  0  0  0  0
  142.9690  137.8710  150.7980 C   0  0  0  0  0  0  0  0  0  0  0  0
  142.8040  136.6810  150.5250 O   0  0  0  0  0  0  0  0  0  0  0  0
  144.3070  138.5600  150.6350 C   0  0  0  0  0  2  0  0  0  0  0  0
  144.1630  140.0640  150.8260 C   0  0  0  0  0  2  0  0  0  0  0  0
  146.3810  140.2150  153.9210 C   0  0  0  0  0  0  0  0  0  0  0  0
  145.5040  139.7510  152.9360 C   0  0  0  0  0  3  0  0  0  0  0  0
  145.0940  140.5890  151.8870 C   0  0  0  0  0  0  0  0  0  0  0  0
  145.5500  141.9110  151.8430 C   0  0  0  0  0  3  0  0  0  0  0  0
  146.4210  142.3880  152.8230 C   0  0  0  0  0  3  0  0  0  0  0  0
  146.8340  141.5400  153.8510 C   0  0  0  0  0  0  0  0  0  0  0  0
  148.0820  138.7860  154.7840 C   0  0  0  0  0  1  0  0  0  0  0  0
  146.8470  139.4640  154.9690 O   0  0  0  0  0  0  0  0  0  0  0  0
  147.6960  142.0060  154.8090 O   0  0  0  0  0  0  0  0  0  0  0  0
  148.4240  141.4810  155.0790 H   0  0  0  0  0  0  0  0  0  0  0  0
  139.9150  138.2460  152.9280 C   0  0  0  0  0  2  0  0  0  0  0  0
  139.4620  138.7110  154.2940 C   0  0  0  0  0  0  0  0  0  0  0  0
  139.2890  139.9070  154.5250 O   0  0  0  0  0  0  0  0  0  0  0  0
  139.2950  137.6570  155.3680 C   0  0  0  0  0  2  0  0  0  0  0  0
  137.9180  137.0080  155.2660 C   0  0  0  0  0  2  0  0  0  0  0  0
  137.2840  136.7810  156.6120 C   0  0  0  0  0  0  0  0  0  0  0  0
  137.0040  135.4860  157.0490 C   0  0  0  0  0  3  0  0  0  0  0  0
  136.3950  135.2780  158.2860 C   0  0  0  0  0  3  0  0  0  0  0  0
  136.0640  136.3660  159.1030 C   0  0  0  0  0  0  0  0  0  0  0  0
  136.3460  137.6730  158.6890 C   0  0  0  0  0  0  0  0  0  0  0  0
  136.9600  137.8640  157.4420 C   0  0  0  0  0  3  0  0  0  0  0  0
  135.4670  136.1080  160.3050 O   0  0  0  0  0  0  0  0  0  0  0  0
  135.9460  135.6680  160.9800 H   0  0  0  0  0  0  0  0  0  0  0  0
  136.0950  138.8480  159.3430 O   0  0  0  0  0  0  0  0  0  0  0  0
  136.8040  139.1100  160.5450 C   0  0  0  0  0  1  0  0  0  0  0  0
  1  4  1  6  0  0  0
  1 19  1  0  0  0  0
  1  2  1  0  0  0  0
  3  2  1  0  0  0  0
  5  4  1  0  0  0  0
  6  5  2  0  0  0  0
  7  5  1  0  0  0  0
  7  8  1  0  0  0  0
  8 11  1  0  0  0  0
  9 16  1  0  0  0  0
 10  9  2  0  0  0  0
 11 10  1  0  0  0  0
 12 11  2  0  0  0  0
 12 13  1  0  0  0  0
 13 14  2  0  0  0  0
 14  9  1  0  0  0  0
 14 17  1  0  0  0  0
 15 16  1  0  0  0  0
 17 18  1  0  0  0  0
 19 20  1  0  0  0  0
 20 21  2  0  0  0  0
 20 22  1  0  0  0  0
 23 22  1  0  0  0  0
 23 24  1  0  0  0  0
 24 25  2  0  0  0  0
 24 29  1  0  0  0  0
 25 26  1  0  0  0  0
 26 27  2  0  0  0  0
 27 30  1  0  0  0  0
 28 27  1  0  0  0  0
 28 32  1  0  0  0  0
 29 28  2  0  0  0  0
 30 31  1  0  0  0  0
 32 33  1  0  0  0  0
M  END
>  <MODEL>
7

>  <REMARK>
 VINA RESULT:    -7.073      5.555      8.169
 INTER + INTRA:         -13.913
 INTER:                 -12.713
 INTRA:                  -1.200
 UNBOUND:                -1.257
  Name = CHEMBL4640124
  17 active torsions:
  status: ('A' for Active; 'I' for Inactive)
    1  A    between atoms: C_1  and  O_2
    2  A    between atoms: O_2  and  C_3
    3  A    between atoms: C_5  and  C_6
    4  A    between atoms: C_6  and  C_7
    5  A    between atoms: C_7  and  C_8
    6  A    between atoms: C_8  and  C_10
    7  A    between atoms: C_10  and  C_11
    8  A    between atoms: C_11  and  O_12
    9  A    between atoms: C_11  and  C_13
   10  A    between atoms: C_13  and  C_14
   11  A    between atoms: C_14  and  C_16
   12  A    between atoms: C_16  and  C_17
   13  A    between atoms: C_17  and  C_18
   14  A    between atoms: C_21  and  O_22
   15  A    between atoms: C_23  and  O_24
   16  A    between atoms: O_24  and  C_25
   17  A    between atoms: C_29  and  O_30
                            x       y       z     vdW  Elec       q    Type
                         _______ _______ _______ _____ _____    ______ ____

>  <TORSDO>
F 15

>  <SCORE>
-7.073

>  <RMSD_LB>
5.555

>  <RMSD_UB>
8.169

$$$$
CHEMBL4640124
 OpenBabel10172500483D

 33 34  0  0  1  0  0  0  0  0999 V2000
  139.2780  138.8940  154.5510 C   0  0  2  0  0  3  0  0  0  0  0  0
  138.0610  138.7710  153.8000 O   0  0  0  0  0  0  0  0  0  0  0  0
  137.8000  139.6420  153.4620 H   0  0  0  0  0  0  0  0  0  0  0  0
  140.4590  138.5860  153.6360 C   0  0  0  0  0  2  0  0  0  0  0  0
  141.7800  138.7860  154.3390 C   0  0  0  0  0  0  0  0  0  0  0  0
  141.9310  139.6840  155.1700 O   0  0  0  0  0  0  0  0  0  0  0  0
  142.8950  137.8310  153.9690 C   0  0  0  0  0  2  0  0  0  0  0  0
  143.7760  138.4310  152.8820 C   0  0  0  0  0  2  0  0  0  0  0  0
  147.1740  140.1420  153.1140 C   0  0  0  0  0  0  0  0  0  0  0  0
  145.9540  139.6710  152.6190 C   0  0  0  0  0  3  0  0  0  0  0  0
  145.0940  138.9130  153.4290 C   0  0  0  0  0  0  0  0  0  0  0  0
  145.4770  138.6050  154.7400 C   0  0  0  0  0  3  0  0  0  0  0  0
  146.6940  139.0640  155.2430 C   0  0  0  0  0  3  0  0  0  0  0  0
  147.5320  139.8310  154.4320 C   0  0  0  0  0  0  0  0  0  0  0  0
  147.5440  142.0070  151.6760 C   0  0  0  0  0  1  0  0  0  0  0  0
  148.0660  140.9010  152.4010 O   0  0  0  0  0  0  0  0  0  0  0  0
  148.7240  140.2870  154.9300 O   0  0  0  0  0  0  0  0  0  0  0  0
  148.8560  141.2060  155.0600 H   0  0  0  0  0  0  0  0  0  0  0  0
  139.1740  137.9390  155.7410 C   0  0  0  0  0  2  0  0  0  0  0  0
  137.7510  137.5670  156.0890 C   0  0  0  0  0  0  0  0  0  0  0  0
  136.9450  138.4280  156.4420 O   0  0  0  0  0  0  0  0  0  0  0  0
  137.3840  136.0990  156.0440 C   0  0  0  0  0  2  0  0  0  0  0  0
  135.8690  135.9320  155.9730 C   0  0  0  0  0  2  0  0  0  0  0  0
  135.3790  135.6810  154.5720 C   0  0  0  0  0  0  0  0  0  0  0  0
  134.0500  135.3210  154.3440 C   0  0  0  0  0  3  0  0  0  0  0  0
  133.6040  135.0650  153.0480 C   0  0  0  0  0  3  0  0  0  0  0  0
  134.4830  135.1720  151.9640 C   0  0  0  0  0  0  0  0  0  0  0  0
  135.8170  135.5430  152.1690 C   0  0  0  0  0  0  0  0  0  0  0  0
  136.2490  135.7980  153.4790 C   0  0  0  0  0  3  0  0  0  0  0  0
  133.9960  134.9100  150.7140 O   0  0  0  0  0  0  0  0  0  0  0  0
  134.5480  135.0150  149.9650 H   0  0  0  0  0  0  0  0  0  0  0  0
  136.8120  135.6950  151.2420 O   0  0  0  0  0  0  0  0  0  0  0  0
  136.9800  136.9700  150.6410 C   0  0  0  0  0  1  0  0  0  0  0  0
  1  4  1  6  0  0  0
  1 19  1  0  0  0  0
  2  1  1  0  0  0  0
  3  2  1  0  0  0  0
  4  5  1  0  0  0  0
  5  6  2  0  0  0  0
  7  5  1  0  0  0  0
  8 11  1  0  0  0  0
  8  7  1  0  0  0  0
  9 14  1  0  0  0  0
 10  9  2  0  0  0  0
 10 11  1  0  0  0  0
 11 12  2  0  0  0  0
 12 13  1  0  0  0  0
 14 17  1  0  0  0  0
 14 13  2  0  0  0  0
 15 16  1  0  0  0  0
 16  9  1  0  0  0  0
 17 18  1  0  0  0  0
 19 20  1  0  0  0  0
 20 21  2  0  0  0  0
 22 20  1  0  0  0  0
 23 22  1  0  0  0  0
 24 23  1  0  0  0  0
 25 24  1  0  0  0  0
 26 25  2  0  0  0  0
 27 28  2  0  0  0  0
 27 26  1  0  0  0  0
 28 29  1  0  0  0  0
 29 24  2  0  0  0  0
 30 27  1  0  0  0  0
 31 30  1  0  0  0  0
 32 28  1  0  0  0  0
 33 32  1  0  0  0  0
M  END
>  <MODEL>
8

>  <REMARK>
 VINA RESULT:    -6.939      3.008      5.098
 INTER + INTRA:         -13.671
 INTER:                 -12.357
 INTRA:                  -1.314
 UNBOUND:                -1.257
  Name = CHEMBL4640124
  17 active torsions:
  status: ('A' for Active; 'I' for Inactive)
    1  A    between atoms: C_1  and  O_2
    2  A    between atoms: O_2  and  C_3
    3  A    between atoms: C_5  and  C_6
    4  A    between atoms: C_6  and  C_7
    5  A    between atoms: C_7  and  C_8
    6  A    between atoms: C_8  and  C_10
    7  A    between atoms: C_10  and  C_11
    8  A    between atoms: C_11  and  O_12
    9  A    between atoms: C_11  and  C_13
   10  A    between atoms: C_13  and  C_14
   11  A    between atoms: C_14  and  C_16
   12  A    between atoms: C_16  and  C_17
   13  A    between atoms: C_17  and  C_18
   14  A    between atoms: C_21  and  O_22
   15  A    between atoms: C_23  and  O_24
   16  A    between atoms: O_24  and  C_25
   17  A    between atoms: C_29  and  O_30
                            x       y       z     vdW  Elec       q    Type
                         _______ _______ _______ _____ _____    ______ ____

>  <TORSDO>
F 15

>  <SCORE>
-6.939

>  <RMSD_LB>
3.008

>  <RMSD_UB>
5.098

$$$$
CHEMBL4640124
 OpenBabel10172500483D

 33 34  0  0  1  0  0  0  0  0999 V2000
  140.0910  138.5570  154.6340 C   0  0  2  0  0  3  0  0  0  0  0  0
  138.7640  138.4050  154.1080 O   0  0  0  0  0  0  0  0  0  0  0  0
  138.4660  139.2480  153.7310 H   0  0  0  0  0  0  0  0  0  0  0  0
  141.0970  138.1220  153.5740 C   0  0  0  0  0  2  0  0  0  0  0  0
  142.5180  138.4010  154.0020 C   0  0  0  0  0  0  0  0  0  0  0  0
  142.8180  139.4510  154.5710 O   0  0  0  0  0  0  0  0  0  0  0  0
  143.5400  137.3260  153.6970 C   0  0  0  0  0  2  0  0  0  0  0  0
  144.3350  137.6820  152.4490 C   0  0  0  0  0  2  0  0  0  0  0  0
  147.4110  138.8020  154.4000 C   0  0  0  0  0  0  0  0  0  0  0  0
  146.1880  138.2100  154.0730 C   0  0  0  0  0  3  0  0  0  0  0  0
  145.6460  138.3440  152.7860 C   0  0  0  0  0  0  0  0  0  0  0  0
  146.3280  139.1020  151.8270 C   0  0  0  0  0  3  0  0  0  0  0  0
  147.5470  139.7020  152.1420 C   0  0  0  0  0  3  0  0  0  0  0  0
  148.0830  139.5470  153.4210 C   0  0  0  0  0  0  0  0  0  0  0  0
  148.3070  137.4050  156.1110 C   0  0  0  0  0  1  0  0  0  0  0  0
  148.0230  138.7090  155.6240 O   0  0  0  0  0  0  0  0  0  0  0  0
  149.2830  140.1310  153.7290 O   0  0  0  0  0  0  0  0  0  0  0  0
  150.0660  139.8500  153.2960 H   0  0  0  0  0  0  0  0  0  0  0  0
  140.1690  137.7250  155.9150 C   0  0  0  0  0  2  0  0  0  0  0  0
  138.8240  137.5070  156.5710 C   0  0  0  0  0  0  0  0  0  0  0  0
  138.1710  138.4600  156.9970 O   0  0  0  0  0  0  0  0  0  0  0  0
  138.3520  136.0780  156.7340 C   0  0  0  0  0  2  0  0  0  0  0  0
  136.9030  136.0480  157.2110 C   0  0  0  0  0  2  0  0  0  0  0  0
  135.9420  135.6680  156.1170 C   0  0  0  0  0  0  0  0  0  0  0  0
  134.8970  134.7790  156.3750 C   0  0  0  0  0  3  0  0  0  0  0  0
  134.0220  134.4100  155.3540 C   0  0  0  0  0  3  0  0  0  0  0  0
  134.1810  134.9290  154.0640 C   0  0  0  0  0  0  0  0  0  0  0  0
  135.2150  135.8300  153.7860 C   0  0  0  0  0  0  0  0  0  0  0  0
  136.0860  136.1930  154.8250 C   0  0  0  0  0  3  0  0  0  0  0  0
  133.2970  134.5330  153.0990 O   0  0  0  0  0  0  0  0  0  0  0  0
  133.0030  135.1460  152.4540 H   0  0  0  0  0  0  0  0  0  0  0  0
  135.5250  136.4330  152.5980 O   0  0  0  0  0  0  0  0  0  0  0  0
  136.2980  135.7030  151.6570 C   0  0  0  0  0  1  0  0  0  0  0  0
  1  4  1  6  0  0  0
  1 19  1  0  0  0  0
  2  1  1  0  0  0  0
  3  2  1  0  0  0  0
  4  5  1  0  0  0  0
  5  6  2  0  0  0  0
  7  5  1  0  0  0  0
  8 11  1  0  0  0  0
  8  7  1  0  0  0  0
  9 16  1  0  0  0  0
 10  9  1  0  0  0  0
 11 10  2  0  0  0  0
 12 13  2  0  0  0  0
 12 11  1  0  0  0  0
 13 14  1  0  0  0  0
 14 17  1  0  0  0  0
 14  9  2  0  0  0  0
 16 15  1  0  0  0  0
 18 17  1  0  0  0  0
 19 20  1  0  0  0  0
 20 22  1  0  0  0  0
 20 21  2  0  0  0  0
 22 23  1  0  0  0  0
 24 25  1  0  0  0  0
 24 23  1  0  0  0  0
 26 25  2  0  0  0  0
 27 26  1  0  0  0  0
 28 27  2  0  0  0  0
 28 29  1  0  0  0  0
 29 24  2  0  0  0  0
 30 27  1  0  0  0  0
 31 30  1  0  0  0  0
 32 28  1  0  0  0  0
 33 32  1  0  0  0  0
M  END
>  <MODEL>
9

>  <REMARK>
 VINA RESULT:    -6.938      3.422      5.991
 INTER + INTRA:         -13.670
 INTER:                 -12.413
 INTRA:                  -1.257
 UNBOUND:                -1.257
  Name = CHEMBL4640124
  17 active torsions:
  status: ('A' for Active; 'I' for Inactive)
    1  A    between atoms: C_1  and  O_2
    2  A    between atoms: O_2  and  C_3
    3  A    between atoms: C_5  and  C_6
    4  A    between atoms: C_6  and  C_7
    5  A    between atoms: C_7  and  C_8
    6  A    between atoms: C_8  and  C_10
    7  A    between atoms: C_10  and  C_11
    8  A    between atoms: C_11  and  O_12
    9  A    between atoms: C_11  and  C_13
   10  A    between atoms: C_13  and  C_14
   11  A    between atoms: C_14  and  C_16
   12  A    between atoms: C_16  and  C_17
   13  A    between atoms: C_17  and  C_18
   14  A    between atoms: C_21  and  O_22
   15  A    between atoms: C_23  and  O_24
   16  A    between atoms: O_24  and  C_25
   17  A    between atoms: C_29  and  O_30
                            x       y       z     vdW  Elec       q    Type
                         _______ _______ _______ _____ _____    ______ ____

>  <TORSDO>
F 15

>  <SCORE>
-6.938

>  <RMSD_LB>
3.422

>  <RMSD_UB>
5.991

$$$$
