CHEMBL3809815
 OpenBabel10172500453D

 25 26  0  0  1  0  0  0  0  0999 V2000
  134.4620  135.9060  153.6690 C   0  0  2  0  0  3  0  0  0  0  0  0
  133.5180  135.3950  154.7630 C   0  0  0  0  0  1  0  0  0  0  0  0
  134.7300  134.8340  151.4190 C   0  0  0  0  0  3  0  0  0  0  0  0
  133.9450  135.4150  152.3380 C   0  0  0  0  0  3  0  0  0  0  0  0
  133.3970  134.9030  147.8660 C   0  0  0  0  0  0  0  0  0  0  0  0
  133.8240  135.3300  149.1270 C   0  0  0  0  0  3  0  0  0  0  0  0
  134.2760  134.4100  150.0870 C   0  0  0  0  0  0  0  0  0  0  0  0
  134.2580  133.0440  149.7800 C   0  0  0  0  0  3  0  0  0  0  0  0
  133.8270  132.6040  148.5290 C   0  0  0  0  0  3  0  0  0  0  0  0
  133.4040  133.5330  147.5800 C   0  0  0  0  0  0  0  0  0  0  0  0
  132.6870  137.0850  147.2240 C   0  0  0  0  0  1  0  0  0  0  0  0
  132.9610  135.7370  146.8670 O   0  0  0  0  0  0  0  0  0  0  0  0
  132.9840  133.1010  146.3490 O   0  0  0  0  0  0  0  0  0  0  0  0
  133.5820  133.0890  145.6270 H   0  0  0  0  0  0  0  0  0  0  0  0
  135.9060  135.4380  153.9520 C   0  0  0  0  0  2  0  0  0  0  0  0
  136.9350  136.5350  154.0940 C   0  0  0  0  0  0  0  0  0  0  0  0
  137.5990  137.0580  152.9810 C   0  0  0  0  0  3  0  0  0  0  0  0
  138.4800  138.1310  153.1200 C   0  0  0  0  0  3  0  0  0  0  0  0
  138.7170  138.6960  154.3780 C   0  0  0  0  0  0  0  0  0  0  0  0
  138.0980  138.1680  155.5140 C   0  0  0  0  0  0  0  0  0  0  0  0
  137.2070  137.0950  155.3560 C   0  0  0  0  0  3  0  0  0  0  0  0
  139.5510  139.7760  154.4520 O   0  0  0  0  0  0  0  0  0  0  0  0
  140.3390  139.7270  154.9570 H   0  0  0  0  0  0  0  0  0  0  0  0
  138.2300  138.5670  156.8180 O   0  0  0  0  0  0  0  0  0  0  0  0
  138.4260  137.5670  157.8070 C   0  0  0  0  0  1  0  0  0  0  0  0
  1 15  1  0  0  0  0
  1  2  1  1  0  0  0
  3  4  2  0  0  0  0
  4  1  1  0  0  0  0
  5  6  1  0  0  0  0
  6  7  2  0  0  0  0
  7  3  1  0  0  0  0
  8  7  1  0  0  0  0
  9  8  2  0  0  0  0
 10  5  2  0  0  0  0
 10  9  1  0  0  0  0
 12 11  1  0  0  0  0
 12  5  1  0  0  0  0
 13 10  1  0  0  0  0
 14 13  1  0  0  0  0
 15 16  1  0  0  0  0
 16 21  1  0  0  0  0
 17 18  1  0  0  0  0
 17 16  2  0  0  0  0
 18 19  2  0  0  0  0
 19 22  1  0  0  0  0
 19 20  1  0  0  0  0
 20 24  1  0  0  0  0
 21 20  2  0  0  0  0
 22 23  1  0  0  0  0
 24 25  1  0  0  0  0
M  END
>  <MODEL>
1

>  <REMARK>
 VINA RESULT:    -7.537      0.000      0.000
 INTER + INTRA:         -11.449
 INTER:                 -10.566
 INTRA:                  -0.882
 UNBOUND:                -0.827
  Name = CHEMBL3809815
  11 active torsions:
  status: ('A' for Active; 'I' for Inactive)
    1  A    between atoms: C_1  and  O_2
    2  A    between atoms: O_2  and  C_3
    3  A    between atoms: C_5  and  C_6
    4  A    between atoms: C_7  and  C_8
    5  A    between atoms: C_8  and  C_9
    6  A    between atoms: C_8  and  C_10
    7  A    between atoms: C_10  and  C_11
    8  A    between atoms: C_14  and  O_15
    9  A    between atoms: C_16  and  O_17
   10  A    between atoms: O_17  and  C_18
   11  A    between atoms: C_22  and  O_23
                            x       y       z     vdW  Elec       q    Type
                         _______ _______ _______ _____ _____    ______ ____

>  <TORSDO>
F 8

>  <SCORE>
-7.537

>  <RMSD_LB>
0.000

>  <RMSD_UB>
0.000

$$$$
CHEMBL3809815
 OpenBabel10172500453D

 25 26  0  0  1  0  0  0  0  0999 V2000
  134.9480  134.3200  152.3640 C   0  0  2  0  0  3  0  0  0  0  0  0
  134.6650  134.0200  153.8400 C   0  0  0  0  0  1  0  0  0  0  0  0
  136.6370  135.8440  151.3120 C   0  0  0  0  0  3  0  0  0  0  0  0
  135.7550  135.5930  152.2910 C   0  0  0  0  0  3  0  0  0  0  0  0
  138.3920  138.9670  150.0560 C   0  0  0  0  0  0  0  0  0  0  0  0
  137.5730  137.8340  150.0940 C   0  0  0  0  0  3  0  0  0  0  0  0
  137.4910  137.0400  151.2480 C   0  0  0  0  0  0  0  0  0  0  0  0
  138.2730  137.3730  152.3600 C   0  0  0  0  0  3  0  0  0  0  0  0
  139.1000  138.4960  152.3350 C   0  0  0  0  0  3  0  0  0  0  0  0
  139.1520  139.2870  151.1880 C   0  0  0  0  0  0  0  0  0  0  0  0
  137.3330  140.0800  148.2360 C   0  0  0  0  0  1  0  0  0  0  0  0
  138.5140  139.8060  148.9780 O   0  0  0  0  0  0  0  0  0  0  0  0
  139.9610  140.3930  151.1640 O   0  0  0  0  0  0  0  0  0  0  0  0
  140.2100  140.7720  150.3440 H   0  0  0  0  0  0  0  0  0  0  0  0
  133.6220  134.4140  151.5770 C   0  0  0  0  0  2  0  0  0  0  0  0
  133.7110  134.0960  150.1030 C   0  0  0  0  0  0  0  0  0  0  0  0
  133.9180  132.7890  149.6520 C   0  0  0  0  0  3  0  0  0  0  0  0
  133.9090  132.5000  148.2870 C   0  0  0  0  0  3  0  0  0  0  0  0
  133.6990  133.5160  147.3480 C   0  0  0  0  0  0  0  0  0  0  0  0
  133.5300  134.8390  147.7680 C   0  0  0  0  0  0  0  0  0  0  0  0
  133.5320  135.1110  149.1450 C   0  0  0  0  0  3  0  0  0  0  0  0
  133.6510  133.1720  146.0260 O   0  0  0  0  0  0  0  0  0  0  0  0
  133.2910  132.3450  145.7710 H   0  0  0  0  0  0  0  0  0  0  0  0
  133.3450  135.9580  147.0010 O   0  0  0  0  0  0  0  0  0  0  0  0
  132.4600  136.9590  147.4800 C   0  0  0  0  0  1  0  0  0  0  0  0
  1  2  1  1  0  0  0
  3  4  2  0  0  0  0
  4  1  1  0  0  0  0
  5  6  2  0  0  0  0
  5 10  1  0  0  0  0
  6  7  1  0  0  0  0
  7  3  1  0  0  0  0
  7  8  2  0  0  0  0
  9  8  1  0  0  0  0
 10  9  2  0  0  0  0
 11 12  1  0  0  0  0
 12  5  1  0  0  0  0
 13 10  1  0  0  0  0
 14 13  1  0  0  0  0
 15  1  1  0  0  0  0
 16 15  1  0  0  0  0
 17 16  1  0  0  0  0
 18 17  2  0  0  0  0
 19 20  2  0  0  0  0
 19 18  1  0  0  0  0
 20 21  1  0  0  0  0
 21 16  2  0  0  0  0
 22 19  1  0  0  0  0
 23 22  1  0  0  0  0
 24 25  1  0  0  0  0
 24 20  1  0  0  0  0
M  END
>  <MODEL>
2

>  <REMARK>
 VINA RESULT:    -7.390      2.354      7.634
 INTER + INTRA:         -11.241
 INTER:                 -10.209
 INTRA:                  -1.032
 UNBOUND:                -0.827
  Name = CHEMBL3809815
  11 active torsions:
  status: ('A' for Active; 'I' for Inactive)
    1  A    between atoms: C_1  and  O_2
    2  A    between atoms: O_2  and  C_3
    3  A    between atoms: C_5  and  C_6
    4  A    between atoms: C_7  and  C_8
    5  A    between atoms: C_8  and  C_9
    6  A    between atoms: C_8  and  C_10
    7  A    between atoms: C_10  and  C_11
    8  A    between atoms: C_14  and  O_15
    9  A    between atoms: C_16  and  O_17
   10  A    between atoms: O_17  and  C_18
   11  A    between atoms: C_22  and  O_23
                            x       y       z     vdW  Elec       q    Type
                         _______ _______ _______ _____ _____    ______ ____

>  <TORSDO>
F 8

>  <SCORE>
-7.390

>  <RMSD_LB>
2.354

>  <RMSD_UB>
7.634

$$$$
CHEMBL3809815
 OpenBabel10172500453D

 25 26  0  0  1  0  0  0  0  0999 V2000
  134.5260  135.8750  153.6400 C   0  0  2  0  0  3  0  0  0  0  0  0
  133.6110  135.2550  154.7010 C   0  0  0  0  0  1  0  0  0  0  0  0
  134.7730  134.5710  151.5130 C   0  0  0  0  0  3  0  0  0  0  0  0
  134.0580  135.4040  152.2840 C   0  0  0  0  0  3  0  0  0  0  0  0
  134.9180  133.6460  147.8350 C   0  0  0  0  0  0  0  0  0  0  0  0
  135.3130  134.0490  149.1140 C   0  0  0  0  0  3  0  0  0  0  0  0
  134.3820  134.1500  150.1600 C   0  0  0  0  0  0  0  0  0  0  0  0
  133.0340  133.8780  149.8980 C   0  0  0  0  0  3  0  0  0  0  0  0
  132.6240  133.4820  148.6260 C   0  0  0  0  0  3  0  0  0  0  0  0
  133.5660  133.3640  147.6040 C   0  0  0  0  0  0  0  0  0  0  0  0
  137.1600  133.5330  147.0380 C   0  0  0  0  0  1  0  0  0  0  0  0
  135.7650  133.5020  146.7650 O   0  0  0  0  0  0  0  0  0  0  0  0
  133.1640  132.9720  146.3540 O   0  0  0  0  0  0  0  0  0  0  0  0
  132.2560  132.8300  146.1770 H   0  0  0  0  0  0  0  0  0  0  0  0
  135.9970  135.4990  153.9210 C   0  0  0  0  0  2  0  0  0  0  0  0
  136.9520  136.6590  154.0810 C   0  0  0  0  0  0  0  0  0  0  0  0
  137.1820  137.2450  155.3290 C   0  0  0  0  0  3  0  0  0  0  0  0
  138.1330  138.2570  155.4730 C   0  0  0  0  0  3  0  0  0  0  0  0
  138.8650  138.7050  154.3680 C   0  0  0  0  0  0  0  0  0  0  0  0
  138.6270  138.1660  153.1010 C   0  0  0  0  0  0  0  0  0  0  0  0
  137.6740  137.1430  152.9740 C   0  0  0  0  0  3  0  0  0  0  0  0
  139.8170  139.6630  154.5730 O   0  0  0  0  0  0  0  0  0  0  0  0
  139.7320  140.5030  154.1670 H   0  0  0  0  0  0  0  0  0  0  0  0
  139.2180  138.4970  151.9100 O   0  0  0  0  0  0  0  0  0  0  0  0
  140.4330  137.8490  151.5630 C   0  0  0  0  0  1  0  0  0  0  0  0
  1 15  1  0  0  0  0
  1  2  1  1  0  0  0
  3  4  2  0  0  0  0
  4  1  1  0  0  0  0
  5  6  1  0  0  0  0
  6  7  2  0  0  0  0
  7  3  1  0  0  0  0
  8  7  1  0  0  0  0
  9  8  2  0  0  0  0
 10  5  2  0  0  0  0
 10  9  1  0  0  0  0
 12 11  1  0  0  0  0
 12  5  1  0  0  0  0
 13 10  1  0  0  0  0
 14 13  1  0  0  0  0
 15 16  1  0  0  0  0
 16 17  1  0  0  0  0
 17 18  2  0  0  0  0
 19 22  1  0  0  0  0
 19 18  1  0  0  0  0
 20 19  2  0  0  0  0
 21 20  1  0  0  0  0
 21 16  2  0  0  0  0
 23 22  1  0  0  0  0
 24 20  1  0  0  0  0
 25 24  1  0  0  0  0
M  END
>  <MODEL>
3

>  <REMARK>
 VINA RESULT:    -7.263      1.416      2.552
 INTER + INTRA:         -11.062
 INTER:                 -10.114
 INTRA:                  -0.948
 UNBOUND:                -0.827
  Name = CHEMBL3809815
  11 active torsions:
  status: ('A' for Active; 'I' for Inactive)
    1  A    between atoms: C_1  and  O_2
    2  A    between atoms: O_2  and  C_3
    3  A    between atoms: C_5  and  C_6
    4  A    between atoms: C_7  and  C_8
    5  A    between atoms: C_8  and  C_9
    6  A    between atoms: C_8  and  C_10
    7  A    between atoms: C_10  and  C_11
    8  A    between atoms: C_14  and  O_15
    9  A    between atoms: C_16  and  O_17
   10  A    between atoms: O_17  and  C_18
   11  A    between atoms: C_22  and  O_23
                            x       y       z     vdW  Elec       q    Type
                         _______ _______ _______ _____ _____    ______ ____

>  <TORSDO>
F 8

>  <SCORE>
-7.263

>  <RMSD_LB>
1.416

>  <RMSD_UB>
2.552

$$$$
CHEMBL3809815
 OpenBabel10172500453D

 25 26  0  0  1  0  0  0  0  0999 V2000
  135.0190  135.9350  153.7760 C   0  0  2  0  0  3  0  0  0  0  0  0
  133.6840  135.4970  154.3880 C   0  0  0  0  0  1  0  0  0  0  0  0
  134.8560  134.3120  151.8720 C   0  0  0  0  0  3  0  0  0  0  0  0
  135.0040  135.5710  152.3110 C   0  0  0  0  0  3  0  0  0  0  0  0
  135.8560  134.0870  148.2180 C   0  0  0  0  0  0  0  0  0  0  0  0
  135.8240  134.4820  149.5590 C   0  0  0  0  0  3  0  0  0  0  0  0
  134.9080  133.9130  150.4580 C   0  0  0  0  0  0  0  0  0  0  0  0
  133.9930  132.9650  149.9880 C   0  0  0  0  0  3  0  0  0  0  0  0
  134.0080  132.5670  148.6510 C   0  0  0  0  0  3  0  0  0  0  0  0
  134.9390  133.1250  147.7770 C   0  0  0  0  0  0  0  0  0  0  0  0
  138.0850  134.1600  147.3810 C   0  0  0  0  0  1  0  0  0  0  0  0
  136.7300  134.5770  147.2810 O   0  0  0  0  0  0  0  0  0  0  0  0
  134.9570  132.7320  146.4640 O   0  0  0  0  0  0  0  0  0  0  0  0
  135.6230  132.1480  146.1590 H   0  0  0  0  0  0  0  0  0  0  0  0
  136.1920  135.2790  154.5370 C   0  0  0  0  0  2  0  0  0  0  0  0
  136.7130  136.0490  155.7280 C   0  0  0  0  0  0  0  0  0  0  0  0
  137.6870  137.0410  155.5830 C   0  0  0  0  0  3  0  0  0  0  0  0
  138.0920  137.8030  156.6800 C   0  0  0  0  0  3  0  0  0  0  0  0
  137.5340  137.5810  157.9440 C   0  0  0  0  0  0  0  0  0  0  0  0
  136.5870  136.5690  158.1260 C   0  0  0  0  0  0  0  0  0  0  0  0
  136.1840  135.8180  157.0110 C   0  0  0  0  0  3  0  0  0  0  0  0
  137.9290  138.3870  158.9730 O   0  0  0  0  0  0  0  0  0  0  0  0
  137.5100  139.2140  159.1080 H   0  0  0  0  0  0  0  0  0  0  0  0
  135.9590  136.1890  159.2830 O   0  0  0  0  0  0  0  0  0  0  0  0
  135.0890  135.0690  159.2360 C   0  0  0  0  0  1  0  0  0  0  0  0
  1  2  1  1  0  0  0
  1 15  1  0  0  0  0
  3  4  2  0  0  0  0
  4  1  1  0  0  0  0
  5  6  1  0  0  0  0
  6  7  2  0  0  0  0
  7  3  1  0  0  0  0
  8  7  1  0  0  0  0
  9  8  2  0  0  0  0
 10  5  2  0  0  0  0
 10  9  1  0  0  0  0
 12 11  1  0  0  0  0
 12  5  1  0  0  0  0
 13 10  1  0  0  0  0
 14 13  1  0  0  0  0
 15 16  1  0  0  0  0
 16 21  1  0  0  0  0
 17 16  2  0  0  0  0
 17 18  1  0  0  0  0
 18 19  2  0  0  0  0
 19 20  1  0  0  0  0
 19 22  1  0  0  0  0
 20 24  1  0  0  0  0
 21 20  2  0  0  0  0
 22 23  1  0  0  0  0
 25 24  1  0  0  0  0
M  END
>  <MODEL>
4

>  <REMARK>
 VINA RESULT:    -7.052      2.195      2.887
 INTER + INTRA:         -10.765
 INTER:                 -10.066
 INTRA:                  -0.699
 UNBOUND:                -0.827
  Name = CHEMBL3809815
  11 active torsions:
  status: ('A' for Active; 'I' for Inactive)
    1  A    between atoms: C_1  and  O_2
    2  A    between atoms: O_2  and  C_3
    3  A    between atoms: C_5  and  C_6
    4  A    between atoms: C_7  and  C_8
    5  A    between atoms: C_8  and  C_9
    6  A    between atoms: C_8  and  C_10
    7  A    between atoms: C_10  and  C_11
    8  A    between atoms: C_14  and  O_15
    9  A    between atoms: C_16  and  O_17
   10  A    between atoms: O_17  and  C_18
   11  A    between atoms: C_22  and  O_23
                            x       y       z     vdW  Elec       q    Type
                         _______ _______ _______ _____ _____    ______ ____

>  <TORSDO>
F 8

>  <SCORE>
-7.052

>  <RMSD_LB>
2.195

>  <RMSD_UB>
2.887

$$$$
CHEMBL3809815
 OpenBabel10172500453D

 25 26  0  0  1  0  0  0  0  0999 V2000
  137.6660  137.8570  149.7800 C   0  0  2  0  0  3  0  0  0  0  0  0
  138.0350  138.4660  148.4230 C   0  0  0  0  0  1  0  0  0  0  0  0
  139.6830  137.3590  151.1840 C   0  0  0  0  0  3  0  0  0  0  0  0
  138.7470  138.2250  150.7670 C   0  0  0  0  0  3  0  0  0  0  0  0
  141.3540  138.2980  154.4590 C   0  0  0  0  0  0  0  0  0  0  0  0
  140.3650  138.0130  153.5130 C   0  0  0  0  0  3  0  0  0  0  0  0
  140.7050  137.6630  152.1960 C   0  0  0  0  0  0  0  0  0  0  0  0
  142.0540  137.6380  151.8260 C   0  0  0  0  0  3  0  0  0  0  0  0
  143.0510  137.9270  152.7570 C   0  0  0  0  0  3  0  0  0  0  0  0
  142.6980  138.2500  154.0660 C   0  0  0  0  0  0  0  0  0  0  0  0
  140.4270  137.6660  156.5600 C   0  0  0  0  0  1  0  0  0  0  0  0
  141.1100  138.6280  155.7680 O   0  0  0  0  0  0  0  0  0  0  0  0
  143.6770  138.5310  154.9830 O   0  0  0  0  0  0  0  0  0  0  0  0
  143.6970  138.0740  155.8010 H   0  0  0  0  0  0  0  0  0  0  0  0
  137.4840  136.3290  149.6450 C   0  0  0  0  0  2  0  0  0  0  0  0
  136.2280  135.7610  150.2630 C   0  0  0  0  0  0  0  0  0  0  0  0
  136.2820  134.7140  151.1860 C   0  0  0  0  0  3  0  0  0  0  0  0
  135.1200  134.2610  151.8140 C   0  0  0  0  0  3  0  0  0  0  0  0
  133.8820  134.8460  151.5230 C   0  0  0  0  0  0  0  0  0  0  0  0
  133.7930  135.8680  150.5740 C   0  0  0  0  0  0  0  0  0  0  0  0
  134.9720  136.3180  149.9590 C   0  0  0  0  0  3  0  0  0  0  0  0
  132.7840  134.3990  152.2010 O   0  0  0  0  0  0  0  0  0  0  0  0
  132.1110  133.9300  151.7470 H   0  0  0  0  0  0  0  0  0  0  0  0
  132.6760  136.5330  150.1410 O   0  0  0  0  0  0  0  0  0  0  0  0
  132.6720  137.0440  148.8170 C   0  0  0  0  0  1  0  0  0  0  0  0
  1  2  1  6  0  0  0
  1  4  1  0  0  0  0
  3  7  1  0  0  0  0
  4  3  2  0  0  0  0
  5 12  1  0  0  0  0
  6  5  2  0  0  0  0
  7  6  1  0  0  0  0
  8  7  2  0  0  0  0
  8  9  1  0  0  0  0
  9 10  2  0  0  0  0
 10  5  1  0  0  0  0
 10 13  1  0  0  0  0
 12 11  1  0  0  0  0
 13 14  1  0  0  0  0
 15  1  1  0  0  0  0
 15 16  1  0  0  0  0
 16 17  1  0  0  0  0
 17 18  2  0  0  0  0
 19 18  1  0  0  0  0
 19 22  1  0  0  0  0
 20 19  2  0  0  0  0
 21 16  2  0  0  0  0
 21 20  1  0  0  0  0
 23 22  1  0  0  0  0
 24 20  1  0  0  0  0
 25 24  1  0  0  0  0
M  END
>  <MODEL>
5

>  <REMARK>
 VINA RESULT:    -6.872      3.042      8.783
 INTER + INTRA:         -10.511
 INTER:                  -9.613
 INTRA:                  -0.897
 UNBOUND:                -0.827
  Name = CHEMBL3809815
  11 active torsions:
  status: ('A' for Active; 'I' for Inactive)
    1  A    between atoms: C_1  and  O_2
    2  A    between atoms: O_2  and  C_3
    3  A    between atoms: C_5  and  C_6
    4  A    between atoms: C_7  and  C_8
    5  A    between atoms: C_8  and  C_9
    6  A    between atoms: C_8  and  C_10
    7  A    between atoms: C_10  and  C_11
    8  A    between atoms: C_14  and  O_15
    9  A    between atoms: C_16  and  O_17
   10  A    between atoms: O_17  and  C_18
   11  A    between atoms: C_22  and  O_23
                            x       y       z     vdW  Elec       q    Type
                         _______ _______ _______ _____ _____    ______ ____

>  <TORSDO>
F 8

>  <SCORE>
-6.872

>  <RMSD_LB>
3.042

>  <RMSD_UB>
8.783

$$$$
CHEMBL3809815
 OpenBabel10172500453D

 25 26  0  0  1  0  0  0  0  0999 V2000
  136.8570  136.9870  149.8470 C   0  0  2  0  0  3  0  0  0  0  0  0
  137.1860  137.8930  148.6570 C   0  0  0  0  0  1  0  0  0  0  0  0
  139.1120  137.3280  150.8890 C   0  0  0  0  0  3  0  0  0  0  0  0
  137.7740  137.3600  150.9870 C   0  0  0  0  0  3  0  0  0  0  0  0
  140.4690  138.3010  154.2970 C   0  0  0  0  0  0  0  0  0  0  0  0
  139.5740  138.0350  153.2560 C   0  0  0  0  0  3  0  0  0  0  0  0
  140.0330  137.6140  151.9980 C   0  0  0  0  0  0  0  0  0  0  0  0
  141.4110  137.5010  151.7800 C   0  0  0  0  0  3  0  0  0  0  0  0
  142.3160  137.7710  152.8060 C   0  0  0  0  0  3  0  0  0  0  0  0
  141.8420  138.1650  154.0570 C   0  0  0  0  0  0  0  0  0  0  0  0
  139.3960  137.7510  156.3510 C   0  0  0  0  0  1  0  0  0  0  0  0
  140.1040  138.6950  155.5590 O   0  0  0  0  0  0  0  0  0  0  0  0
  142.7300  138.4270  155.0670 O   0  0  0  0  0  0  0  0  0  0  0  0
  143.3980  139.0740  154.9480 H   0  0  0  0  0  0  0  0  0  0  0  0
  136.9920  135.5040  149.4400 C   0  0  0  0  0  2  0  0  0  0  0  0
  135.7960  134.9050  148.7370 C   0  0  0  0  0  0  0  0  0  0  0  0
  135.8440  134.5640  147.3820 C   0  0  0  0  0  3  0  0  0  0  0  0
  134.7610  133.9310  146.7710 C   0  0  0  0  0  3  0  0  0  0  0  0
  133.6060  133.6350  147.5040 C   0  0  0  0  0  0  0  0  0  0  0  0
  133.5140  134.0010  148.8500 C   0  0  0  0  0  0  0  0  0  0  0  0
  134.6160  134.6280  149.4520 C   0  0  0  0  0  3  0  0  0  0  0  0
  132.5940  132.9710  146.8700 O   0  0  0  0  0  0  0  0  0  0  0  0
  132.4580  132.0580  147.0340 H   0  0  0  0  0  0  0  0  0  0  0  0
  132.4640  133.8220  149.7100 O   0  0  0  0  0  0  0  0  0  0  0  0
  132.4060  134.6320  150.8750 C   0  0  0  0  0  1  0  0  0  0  0  0
  1  2  1  6  0  0  0
  1  4  1  0  0  0  0
  3  4  2  0  0  0  0
  3  7  1  0  0  0  0
  5 12  1  0  0  0  0
  6  5  2  0  0  0  0
  7  6  1  0  0  0  0
  8  7  2  0  0  0  0
  8  9  1  0  0  0  0
  9 10  2  0  0  0  0
 10  5  1  0  0  0  0
 10 13  1  0  0  0  0
 12 11  1  0  0  0  0
 14 13  1  0  0  0  0
 15  1  1  0  0  0  0
 16 15  1  0  0  0  0
 16 21  1  0  0  0  0
 17 16  2  0  0  0  0
 18 17  1  0  0  0  0
 18 19  2  0  0  0  0
 19 20  1  0  0  0  0
 20 21  2  0  0  0  0
 20 24  1  0  0  0  0
 22 23  1  0  0  0  0
 22 19  1  0  0  0  0
 24 25  1  0  0  0  0
M  END
>  <MODEL>
6

>  <REMARK>
 VINA RESULT:    -6.778      2.482      9.016
 INTER + INTRA:         -10.379
 INTER:                  -9.650
 INTRA:                  -0.729
 UNBOUND:                -0.827
  Name = CHEMBL3809815
  11 active torsions:
  status: ('A' for Active; 'I' for Inactive)
    1  A    between atoms: C_1  and  O_2
    2  A    between atoms: O_2  and  C_3
    3  A    between atoms: C_5  and  C_6
    4  A    between atoms: C_7  and  C_8
    5  A    between atoms: C_8  and  C_9
    6  A    between atoms: C_8  and  C_10
    7  A    between atoms: C_10  and  C_11
    8  A    between atoms: C_14  and  O_15
    9  A    between atoms: C_16  and  O_17
   10  A    between atoms: O_17  and  C_18
   11  A    between atoms: C_22  and  O_23
                            x       y       z     vdW  Elec       q    Type
                         _______ _______ _______ _____ _____    ______ ____

>  <TORSDO>
F 8

>  <SCORE>
-6.778

>  <RMSD_LB>
2.482

>  <RMSD_UB>
9.016

$$$$
CHEMBL3809815
 OpenBabel10172500453D

 25 26  0  0  1  0  0  0  0  0999 V2000
  138.3400  136.2810  149.0980 C   0  0  2  0  0  3  0  0  0  0  0  0
  139.6430  136.0710  148.3200 C   0  0  0  0  0  1  0  0  0  0  0  0
  139.8790  137.2890  150.8020 C   0  0  0  0  0  3  0  0  0  0  0  0
  138.6960  136.7370  150.4930 C   0  0  0  0  0  3  0  0  0  0  0  0
  139.7690  138.5000  154.3970 C   0  0  0  0  0  0  0  0  0  0  0  0
  139.3600  138.1360  153.1100 C   0  0  0  0  0  3  0  0  0  0  0  0
  140.2860  137.6780  152.1600 C   0  0  0  0  0  0  0  0  0  0  0  0
  141.6420  137.6250  152.5020 C   0  0  0  0  0  3  0  0  0  0  0  0
  142.0660  137.9920  153.7790 C   0  0  0  0  0  3  0  0  0  0  0  0
  141.1300  138.4230  154.7180 C   0  0  0  0  0  0  0  0  0  0  0  0
  137.7860  138.1390  155.6660 C   0  0  0  0  0  1  0  0  0  0  0  0
  138.9290  138.9370  155.3890 O   0  0  0  0  0  0  0  0  0  0  0  0
  141.5460  138.7800  155.9740 O   0  0  0  0  0  0  0  0  0  0  0  0
  142.3390  138.4250  156.3240 H   0  0  0  0  0  0  0  0  0  0  0  0
  137.5040  134.9830  149.0960 C   0  0  0  0  0  2  0  0  0  0  0  0
  136.0940  135.1100  149.6230 C   0  0  0  0  0  0  0  0  0  0  0  0
  135.1220  135.8400  148.9330 C   0  0  0  0  0  3  0  0  0  0  0  0
  133.8040  135.8750  149.3890 C   0  0  0  0  0  3  0  0  0  0  0  0
  133.4350  135.1830  150.5480 C   0  0  0  0  0  0  0  0  0  0  0  0
  134.3940  134.4770  151.2810 C   0  0  0  0  0  0  0  0  0  0  0  0
  135.7140  134.4450  150.8040 C   0  0  0  0  0  3  0  0  0  0  0  0
  132.1210  135.2080  150.9230 O   0  0  0  0  0  0  0  0  0  0  0  0
  131.7530  134.4830  151.3890 H   0  0  0  0  0  0  0  0  0  0  0  0
  134.2270  133.7720  152.4440 O   0  0  0  0  0  0  0  0  0  0  0  0
  134.2190  134.4920  153.6670 C   0  0  0  0  0  1  0  0  0  0  0  0
  1  2  1  6  0  0  0
  1  4  1  0  0  0  0
  3  7  1  0  0  0  0
  4  3  2  0  0  0  0
  5 10  1  0  0  0  0
  5 12  1  0  0  0  0
  6  5  2  0  0  0  0
  7  8  2  0  0  0  0
  7  6  1  0  0  0  0
  8  9  1  0  0  0  0
  9 10  2  0  0  0  0
 10 13  1  0  0  0  0
 12 11  1  0  0  0  0
 13 14  1  0  0  0  0
 15  1  1  0  0  0  0
 15 16  1  0  0  0  0
 16 21  1  0  0  0  0
 17 18  1  0  0  0  0
 17 16  2  0  0  0  0
 18 19  2  0  0  0  0
 19 22  1  0  0  0  0
 19 20  1  0  0  0  0
 20 24  1  0  0  0  0
 21 20  2  0  0  0  0
 22 23  1  0  0  0  0
 24 25  1  0  0  0  0
M  END
>  <MODEL>
7

>  <REMARK>
 VINA RESULT:    -6.753      2.801      8.262
 INTER + INTRA:         -10.343
 INTER:                  -9.424
 INTRA:                  -0.919
 UNBOUND:                -0.827
  Name = CHEMBL3809815
  11 active torsions:
  status: ('A' for Active; 'I' for Inactive)
    1  A    between atoms: C_1  and  O_2
    2  A    between atoms: O_2  and  C_3
    3  A    between atoms: C_5  and  C_6
    4  A    between atoms: C_7  and  C_8
    5  A    between atoms: C_8  and  C_9
    6  A    between atoms: C_8  and  C_10
    7  A    between atoms: C_10  and  C_11
    8  A    between atoms: C_14  and  O_15
    9  A    between atoms: C_16  and  O_17
   10  A    between atoms: O_17  and  C_18
   11  A    between atoms: C_22  and  O_23
                            x       y       z     vdW  Elec       q    Type
                         _______ _______ _______ _____ _____    ______ ____

>  <TORSDO>
F 8

>  <SCORE>
-6.753

>  <RMSD_LB>
2.801

>  <RMSD_UB>
8.262

$$$$
CHEMBL3809815
 OpenBabel10172500453D

 25 26  0  0  1  0  0  0  0  0999 V2000
  137.9020  137.9080  150.8990 C   0  0  2  0  0  3  0  0  0  0  0  0
  138.1510  138.6410  149.5760 C   0  0  0  0  0  1  0  0  0  0  0  0
  140.3610  137.5670  151.2460 C   0  0  0  0  0  3  0  0  0  0  0  0
  139.1700  137.9700  151.7150 C   0  0  0  0  0  3  0  0  0  0  0  0
  143.9930  137.1240  152.2550 C   0  0  0  0  0  0  0  0  0  0  0  0
  142.8260  137.1360  151.4850 C   0  0  0  0  0  3  0  0  0  0  0  0
  141.6010  137.5450  152.0350 C   0  0  0  0  0  0  0  0  0  0  0  0
  141.5500  137.9090  153.3860 C   0  0  0  0  0  3  0  0  0  0  0  0
  142.7040  137.8940  154.1680 C   0  0  0  0  0  3  0  0  0  0  0  0
  143.9170  137.5080  153.6000 C   0  0  0  0  0  0  0  0  0  0  0  0
  145.3170  136.3530  150.4310 C   0  0  0  0  0  1  0  0  0  0  0  0
  145.2310  136.7590  151.7900 O   0  0  0  0  0  0  0  0  0  0  0  0
  145.0530  137.4970  154.3670 O   0  0  0  0  0  0  0  0  0  0  0  0
  145.5860  138.2650  154.4250 H   0  0  0  0  0  0  0  0  0  0  0  0
  137.4440  136.4590  150.6250 C   0  0  0  0  0  2  0  0  0  0  0  0
  136.3110  135.9550  151.4890 C   0  0  0  0  0  0  0  0  0  0  0  0
  136.4810  135.7440  152.8600 C   0  0  0  0  0  3  0  0  0  0  0  0
  135.4010  135.3640  153.6590 C   0  0  0  0  0  3  0  0  0  0  0  0
  134.1330  135.1820  153.0970 C   0  0  0  0  0  0  0  0  0  0  0  0
  133.9420  135.3470  151.7220 C   0  0  0  0  0  0  0  0  0  0  0  0
  135.0360  135.7380  150.9340 C   0  0  0  0  0  3  0  0  0  0  0  0
  133.1000  134.8580  153.9300 O   0  0  0  0  0  0  0  0  0  0  0  0
  132.4600  134.2290  153.6600 H   0  0  0  0  0  0  0  0  0  0  0  0
  132.7920  135.1840  150.9970 O   0  0  0  0  0  0  0  0  0  0  0  0
  132.5590  133.9250  150.3840 C   0  0  0  0  0  1  0  0  0  0  0  0
  1  2  1  6  0  0  0
  1  4  1  0  0  0  0
  3  4  2  0  0  0  0
  3  7  1  0  0  0  0
  5 10  1  0  0  0  0
  6  7  1  0  0  0  0
  6  5  2  0  0  0  0
  7  8  2  0  0  0  0
  8  9  1  0  0  0  0
 10  9  2  0  0  0  0
 10 13  1  0  0  0  0
 11 12  1  0  0  0  0
 12  5  1  0  0  0  0
 13 14  1  0  0  0  0
 15  1  1  0  0  0  0
 15 16  1  0  0  0  0
 16 17  1  0  0  0  0
 17 18  2  0  0  0  0
 19 18  1  0  0  0  0
 19 22  1  0  0  0  0
 20 19  2  0  0  0  0
 21 16  2  0  0  0  0
 21 20  1  0  0  0  0
 23 22  1  0  0  0  0
 24 20  1  0  0  0  0
 25 24  1  0  0  0  0
M  END
>  <MODEL>
8

>  <REMARK>
 VINA RESULT:    -6.728      4.027      8.853
 INTER + INTRA:         -10.308
 INTER:                  -9.481
 INTRA:                  -0.827
 UNBOUND:                -0.827
  Name = CHEMBL3809815
  11 active torsions:
  status: ('A' for Active; 'I' for Inactive)
    1  A    between atoms: C_1  and  O_2
    2  A    between atoms: O_2  and  C_3
    3  A    between atoms: C_5  and  C_6
    4  A    between atoms: C_7  and  C_8
    5  A    between atoms: C_8  and  C_9
    6  A    between atoms: C_8  and  C_10
    7  A    between atoms: C_10  and  C_11
    8  A    between atoms: C_14  and  O_15
    9  A    between atoms: C_16  and  O_17
   10  A    between atoms: O_17  and  C_18
   11  A    between atoms: C_22  and  O_23
                            x       y       z     vdW  Elec       q    Type
                         _______ _______ _______ _____ _____    ______ ____

>  <TORSDO>
F 8

>  <SCORE>
-6.728

>  <RMSD_LB>
4.027

>  <RMSD_UB>
8.853

$$$$
CHEMBL3809815
 OpenBabel10172500453D

 25 26  0  0  1  0  0  0  0  0999 V2000
  139.1140  138.1470  150.1450 C   0  0  2  0  0  3  0  0  0  0  0  0
  139.2280  139.6130  150.5740 C   0  0  0  0  0  1  0  0  0  0  0  0
  137.3920  136.4270  150.7500 C   0  0  0  0  0  3  0  0  0  0  0  0
  137.7000  137.6890  150.4130 C   0  0  0  0  0  3  0  0  0  0  0  0
  134.2480  135.0520  152.3710 C   0  0  0  0  0  0  0  0  0  0  0  0
  135.5550  135.5210  152.2060 C   0  0  0  0  0  3  0  0  0  0  0  0
  136.0220  135.9310  150.9480 C   0  0  0  0  0  0  0  0  0  0  0  0
  135.1720  135.8300  149.8410 C   0  0  0  0  0  3  0  0  0  0  0  0
  133.8680  135.3580  149.9880 C   0  0  0  0  0  3  0  0  0  0  0  0
  133.4130  134.9760  151.2490 C   0  0  0  0  0  0  0  0  0  0  0  0
  134.0700  135.3960  154.7210 C   0  0  0  0  0  1  0  0  0  0  0  0
  133.7070  134.6520  153.5660 O   0  0  0  0  0  0  0  0  0  0  0  0
  132.1300  134.5150  151.3960 O   0  0  0  0  0  0  0  0  0  0  0  0
  131.6910  134.1140  150.6720 H   0  0  0  0  0  0  0  0  0  0  0  0
  140.1640  137.2920  150.8900 C   0  0  0  0  0  2  0  0  0  0  0  0
  140.6810  137.8720  152.1860 C   0  0  0  0  0  0  0  0  0  0  0  0
  142.0250  138.2200  152.3410 C   0  0  0  0  0  3  0  0  0  0  0  0
  142.4680  138.8350  153.5130 C   0  0  0  0  0  3  0  0  0  0  0  0
  141.5730  139.1080  154.5530 C   0  0  0  0  0  0  0  0  0  0  0  0
  140.2300  138.7350  154.4410 C   0  0  0  0  0  0  0  0  0  0  0  0
  139.7990  138.1250  153.2530 C   0  0  0  0  0  3  0  0  0  0  0  0
  142.0480  139.7560  155.6580 O   0  0  0  0  0  0  0  0  0  0  0  0
  142.3660  139.2640  156.3890 H   0  0  0  0  0  0  0  0  0  0  0  0
  139.2250  138.8910  155.3580 O   0  0  0  0  0  0  0  0  0  0  0  0
  138.6520  137.7240  155.9290 C   0  0  0  0  0  1  0  0  0  0  0  0
  1  4  1  0  0  0  0
  1  2  1  1  0  0  0
  1 15  1  0  0  0  0
  3  7  1  0  0  0  0
  4  3  2  0  0  0  0
  5 12  1  0  0  0  0
  6  5  1  0  0  0  0
  7  6  2  0  0  0  0
  8  9  2  0  0  0  0
  8  7  1  0  0  0  0
  9 10  1  0  0  0  0
 10 13  1  0  0  0  0
 10  5  2  0  0  0  0
 12 11  1  0  0  0  0
 14 13  1  0  0  0  0
 15 16  1  0  0  0  0
 16 17  2  0  0  0  0
 16 21  1  0  0  0  0
 17 18  1  0  0  0  0
 18 19  2  0  0  0  0
 19 22  1  0  0  0  0
 20 19  1  0  0  0  0
 20 24  1  0  0  0  0
 21 20  2  0  0  0  0
 22 23  1  0  0  0  0
 24 25  1  0  0  0  0
M  END
>  <MODEL>
9

>  <REMARK>
 VINA RESULT:    -6.678      2.759      4.563
 INTER + INTRA:         -10.238
 INTER:                  -9.657
 INTRA:                  -0.581
 UNBOUND:                -0.827
  Name = CHEMBL3809815
  11 active torsions:
  status: ('A' for Active; 'I' for Inactive)
    1  A    between atoms: C_1  and  O_2
    2  A    between atoms: O_2  and  C_3
    3  A    between atoms: C_5  and  C_6
    4  A    between atoms: C_7  and  C_8
    5  A    between atoms: C_8  and  C_9
    6  A    between atoms: C_8  and  C_10
    7  A    between atoms: C_10  and  C_11
    8  A    between atoms: C_14  and  O_15
    9  A    between atoms: C_16  and  O_17
   10  A    between atoms: O_17  and  C_18
   11  A    between atoms: C_22  and  O_23
                            x       y       z     vdW  Elec       q    Type
                         _______ _______ _______ _____ _____    ______ ____

>  <TORSDO>
F 8

>  <SCORE>
-6.678

>  <RMSD_LB>
2.759

>  <RMSD_UB>
4.563

$$$$
