CHEMBL3342739
 OpenBabel10172500463D

 26 27  0  0  0  0  0  0  0  0999 V2000
  146.5020  135.5240  149.4230 C   0  0  0  0  0  0  0  0  0  0  0  0
  147.1290  134.6370  148.8480 O   0  0  0  0  0  0  0  0  0  0  0  0
  147.0400  137.1750  151.1650 C   0  0  0  0  0  3  0  0  0  0  0  0
  146.8070  135.8970  150.8340 C   0  0  0  0  0  3  0  0  0  0  0  0
  148.3080  139.2460  154.0880 C   0  0  0  0  0  0  0  0  0  0  0  0
  148.0440  138.8220  152.7810 C   0  0  0  0  0  3  0  0  0  0  0  0
  147.3490  137.6280  152.5310 C   0  0  0  0  0  0  0  0  0  0  0  0
  146.8900  136.8720  153.6150 C   0  0  0  0  0  3  0  0  0  0  0  0
  147.1460  137.2810  154.9250 C   0  0  0  0  0  3  0  0  0  0  0  0
  147.8560  138.4590  155.1540 C   0  0  0  0  0  0  0  0  0  0  0  0
  148.3250  141.6280  154.1690 C   0  0  0  0  0  1  0  0  0  0  0  0
  148.9840  140.3930  154.4150 O   0  0  0  0  0  0  0  0  0  0  0  0
  148.1130  138.8590  156.4380 O   0  0  0  0  0  0  0  0  0  0  0  0
  148.7530  139.5220  156.6020 H   0  0  0  0  0  0  0  0  0  0  0  0
  145.4140  136.3320  148.7440 C   0  0  0  0  0  2  0  0  0  0  0  0
  144.0180  135.8910  149.1770 C   0  0  0  0  0  2  0  0  0  0  0  0
  143.1690  137.0990  149.5830 C   0  0  0  0  0  2  0  0  0  0  0  0
  142.6250  136.9520  151.0040 C   0  0  0  0  0  2  0  0  0  0  0  0
  143.2690  137.9180  151.9710 C   0  0  0  0  0  0  0  0  0  0  0  0
  143.9410  139.0520  151.4920 C   0  0  0  0  0  3  0  0  0  0  0  0
  144.5250  139.9620  152.3770 C   0  0  0  0  0  3  0  0  0  0  0  0
  144.4420  139.7330  153.7460 C   0  0  0  0  0  0  0  0  0  0  0  0
  143.7920  138.6090  154.2410 C   0  0  0  0  0  3  0  0  0  0  0  0
  143.2090  137.6990  153.3540 C   0  0  0  0  0  3  0  0  0  0  0  0
  144.9910  140.6010  154.6440 O   0  0  0  0  0  0  0  0  0  0  0  0
  145.9200  140.6310  154.7590 H   0  0  0  0  0  0  0  0  0  0  0  0
  1  4  1  0  0  0  0
  2  1  2  0  0  0  0
  3  7  1  0  0  0  0
  4  3  2  0  0  0  0
  5 12  1  0  0  0  0
  5 10  1  0  0  0  0
  6  5  2  0  0  0  0
  7  6  1  0  0  0  0
  7  8  2  0  0  0  0
  8  9  1  0  0  0  0
  9 10  2  0  0  0  0
 10 13  1  0  0  0  0
 11 12  1  0  0  0  0
 13 14  1  0  0  0  0
 15 16  1  0  0  0  0
 15  1  1  0  0  0  0
 16 17  1  0  0  0  0
 17 18  1  0  0  0  0
 18 19  1  0  0  0  0
 19 24  1  0  0  0  0
 20 19  2  0  0  0  0
 20 21  1  0  0  0  0
 21 22  2  0  0  0  0
 22 23  1  0  0  0  0
 22 25  1  0  0  0  0
 24 23  2  0  0  0  0
 25 26  1  0  0  0  0
M  END
>  <MODEL>
1

>  <REMARK>
 VINA RESULT:    -7.097      0.000      0.000
 INTER + INTRA:         -12.384
 INTER:                  -9.470
 INTRA:                  -2.913
 UNBOUND:                -1.553
  Name = CHEMBL3342739
  11 active torsions:
  status: ('A' for Active; 'I' for Inactive)
    1  A    between atoms: C_1  and  O_2
    2  A    between atoms: O_2  and  C_3
    3  A    between atoms: C_5  and  C_6
    4  A    between atoms: C_7  and  C_8
    5  A    between atoms: C_8  and  C_10
    6  A    between atoms: C_10  and  C_11
    7  A    between atoms: C_11  and  C_12
    8  A    between atoms: C_12  and  C_13
    9  A    between atoms: C_13  and  C_14
   10  A    between atoms: C_17  and  O_18
   11  A    between atoms: C_23  and  O_24
                            x       y       z     vdW  Elec       q    Type
                         _______ _______ _______ _____ _____    ______ ____

>  <TORSDO>
F 10

>  <SCORE>
-7.097

>  <RMSD_LB>
0.000

>  <RMSD_UB>
0.000

$$$$
CHEMBL3342739
 OpenBabel10172500463D

 26 27  0  0  0  0  0  0  0  0999 V2000
  143.5500  137.6330  149.0130 C   0  0  0  0  0  0  0  0  0  0  0  0
  143.6150  136.5040  148.5360 O   0  0  0  0  0  0  0  0  0  0  0  0
  141.9610  137.1960  150.8400 C   0  0  0  0  0  3  0  0  0  0  0  0
  142.4220  138.0350  149.9010 C   0  0  0  0  0  3  0  0  0  0  0  0
  140.0050  138.2870  153.9090 C   0  0  0  0  0  0  0  0  0  0  0  0
  141.0730  137.9700  153.0630 C   0  0  0  0  0  3  0  0  0  0  0  0
  140.8530  137.5120  151.7540 C   0  0  0  0  0  0  0  0  0  0  0  0
  139.5380  137.4050  151.2870 C   0  0  0  0  0  3  0  0  0  0  0  0
  138.4610  137.7170  152.1200 C   0  0  0  0  0  3  0  0  0  0  0  0
  138.6990  138.1500  153.4240 C   0  0  0  0  0  0  0  0  0  0  0  0
  140.5530  137.7860  156.1750 C   0  0  0  0  0  1  0  0  0  0  0  0
  140.1370  138.7330  155.1990 O   0  0  0  0  0  0  0  0  0  0  0  0
  137.6440  138.4510  154.2430 O   0  0  0  0  0  0  0  0  0  0  0  0
  136.8330  138.7370  153.8730 H   0  0  0  0  0  0  0  0  0  0  0  0
  144.6170  138.6850  148.7810 C   0  0  0  0  0  2  0  0  0  0  0  0
  144.0810  140.1010  148.9790 C   0  0  0  0  0  2  0  0  0  0  0  0
  144.5030  140.6560  150.3420 C   0  0  0  0  0  2  0  0  0  0  0  0
  145.6590  141.6470  150.2110 C   0  0  0  0  0  2  0  0  0  0  0  0
  146.4780  141.7490  151.4770 C   0  0  0  0  0  0  0  0  0  0  0  0
  145.8440  141.9500  152.7120 C   0  0  0  0  0  3  0  0  0  0  0  0
  146.5880  142.0280  153.8920 C   0  0  0  0  0  3  0  0  0  0  0  0
  147.9730  141.9110  153.8360 C   0  0  0  0  0  0  0  0  0  0  0  0
  148.6220  141.7250  152.6210 C   0  0  0  0  0  3  0  0  0  0  0  0
  147.8750  141.6470  151.4410 C   0  0  0  0  0  3  0  0  0  0  0  0
  148.7360  141.9730  154.9650 O   0  0  0  0  0  0  0  0  0  0  0  0
  149.2230  142.7490  155.1590 H   0  0  0  0  0  0  0  0  0  0  0  0
  1  4  1  0  0  0  0
  2  1  2  0  0  0  0
  3  7  1  0  0  0  0
  4  3  2  0  0  0  0
  5 12  1  0  0  0  0
  6  5  2  0  0  0  0
  7  6  1  0  0  0  0
  8  7  2  0  0  0  0
  8  9  1  0  0  0  0
  9 10  2  0  0  0  0
 10  5  1  0  0  0  0
 10 13  1  0  0  0  0
 12 11  1  0  0  0  0
 14 13  1  0  0  0  0
 15 16  1  0  0  0  0
 15  1  1  0  0  0  0
 16 17  1  0  0  0  0
 18 17  1  0  0  0  0
 18 19  1  0  0  0  0
 19 20  1  0  0  0  0
 20 21  2  0  0  0  0
 22 21  1  0  0  0  0
 22 25  1  0  0  0  0
 23 22  2  0  0  0  0
 24 19  2  0  0  0  0
 24 23  1  0  0  0  0
 25 26  1  0  0  0  0
M  END
>  <MODEL>
2

>  <REMARK>
 VINA RESULT:    -6.919      3.194      6.383
 INTER + INTRA:         -12.111
 INTER:                 -11.378
 INTRA:                  -0.734
 UNBOUND:                -1.553
  Name = CHEMBL3342739
  11 active torsions:
  status: ('A' for Active; 'I' for Inactive)
    1  A    between atoms: C_1  and  O_2
    2  A    between atoms: O_2  and  C_3
    3  A    between atoms: C_5  and  C_6
    4  A    between atoms: C_7  and  C_8
    5  A    between atoms: C_8  and  C_10
    6  A    between atoms: C_10  and  C_11
    7  A    between atoms: C_11  and  C_12
    8  A    between atoms: C_12  and  C_13
    9  A    between atoms: C_13  and  C_14
   10  A    between atoms: C_17  and  O_18
   11  A    between atoms: C_23  and  O_24
                            x       y       z     vdW  Elec       q    Type
                         _______ _______ _______ _____ _____    ______ ____

>  <TORSDO>
F 10

>  <SCORE>
-6.919

>  <RMSD_LB>
3.194

>  <RMSD_UB>
6.383

$$$$
CHEMBL3342739
 OpenBabel10172500463D

 26 27  0  0  0  0  0  0  0  0999 V2000
  146.7800  138.1410  154.6530 C   0  0  0  0  0  0  0  0  0  0  0  0
  147.5810  137.2490  154.9190 O   0  0  0  0  0  0  0  0  0  0  0  0
  145.0500  138.1460  152.9040 C   0  0  0  0  0  3  0  0  0  0  0  0
  145.4100  137.8300  154.1570 C   0  0  0  0  0  3  0  0  0  0  0  0
  142.2740  137.1630  150.5020 C   0  0  0  0  0  0  0  0  0  0  0  0
  143.5470  137.4350  151.0150 C   0  0  0  0  0  3  0  0  0  0  0  0
  143.7190  137.8760  152.3370 C   0  0  0  0  0  0  0  0  0  0  0  0
  142.5940  138.0130  153.1570 C   0  0  0  0  0  3  0  0  0  0  0  0
  141.3160  137.7460  152.6600 C   0  0  0  0  0  3  0  0  0  0  0  0
  141.1630  137.3280  151.3380 C   0  0  0  0  0  0  0  0  0  0  0  0
  142.5430  137.5240  148.1610 C   0  0  0  0  0  1  0  0  0  0  0  0
  142.0230  136.7360  149.2240 O   0  0  0  0  0  0  0  0  0  0  0  0
  139.9110  137.0710  150.8470 O   0  0  0  0  0  0  0  0  0  0  0  0
  139.5690  137.5880  150.1460 H   0  0  0  0  0  0  0  0  0  0  0  0
  147.0970  139.6110  154.8450 C   0  0  0  0  0  2  0  0  0  0  0  0
  148.4770  139.9770  154.3030 C   0  0  0  0  0  2  0  0  0  0  0  0
  148.6120  141.4930  154.1400 C   0  0  0  0  0  2  0  0  0  0  0  0
  148.7670  141.8890  152.6710 C   0  0  0  0  0  2  0  0  0  0  0  0
  147.5290  141.5890  151.8590 C   0  0  0  0  0  0  0  0  0  0  0  0
  147.5740  140.6370  150.8300 C   0  0  0  0  0  3  0  0  0  0  0  0
  146.4320  140.3370  150.0840 C   0  0  0  0  0  3  0  0  0  0  0  0
  145.2400  140.9980  150.3640 C   0  0  0  0  0  0  0  0  0  0  0  0
  145.1770  141.9540  151.3710 C   0  0  0  0  0  3  0  0  0  0  0  0
  146.3210  142.2520  152.1160 C   0  0  0  0  0  3  0  0  0  0  0  0
  144.1000  140.7290  149.6660 O   0  0  0  0  0  0  0  0  0  0  0  0
  144.0590  139.9790  149.1050 H   0  0  0  0  0  0  0  0  0  0  0  0
  1 15  1  0  0  0  0
  1  2  2  0  0  0  0
  3  4  2  0  0  0  0
  4  1  1  0  0  0  0
  5  6  2  0  0  0  0
  5 10  1  0  0  0  0
  6  7  1  0  0  0  0
  7  3  1  0  0  0  0
  7  8  2  0  0  0  0
  9  8  1  0  0  0  0
 10  9  2  0  0  0  0
 11 12  1  0  0  0  0
 12  5  1  0  0  0  0
 13 10  1  0  0  0  0
 14 13  1  0  0  0  0
 16 15  1  0  0  0  0
 17 16  1  0  0  0  0
 18 17  1  0  0  0  0
 19 24  1  0  0  0  0
 19 18  1  0  0  0  0
 20 19  2  0  0  0  0
 21 22  2  0  0  0  0
 21 20  1  0  0  0  0
 22 23  1  0  0  0  0
 23 24  2  0  0  0  0
 25 22  1  0  0  0  0
 26 25  1  0  0  0  0
M  END
>  <MODEL>
3

>  <REMARK>
 VINA RESULT:    -6.780      2.741      6.421
 INTER + INTRA:         -11.899
 INTER:                 -10.025
 INTRA:                  -1.875
 UNBOUND:                -1.553
  Name = CHEMBL3342739
  11 active torsions:
  status: ('A' for Active; 'I' for Inactive)
    1  A    between atoms: C_1  and  O_2
    2  A    between atoms: O_2  and  C_3
    3  A    between atoms: C_5  and  C_6
    4  A    between atoms: C_7  and  C_8
    5  A    between atoms: C_8  and  C_10
    6  A    between atoms: C_10  and  C_11
    7  A    between atoms: C_11  and  C_12
    8  A    between atoms: C_12  and  C_13
    9  A    between atoms: C_13  and  C_14
   10  A    between atoms: C_17  and  O_18
   11  A    between atoms: C_23  and  O_24
                            x       y       z     vdW  Elec       q    Type
                         _______ _______ _______ _____ _____    ______ ____

>  <TORSDO>
F 10

>  <SCORE>
-6.780

>  <RMSD_LB>
2.741

>  <RMSD_UB>
6.421

$$$$
CHEMBL3342739
 OpenBabel10172500463D

 26 27  0  0  0  0  0  0  0  0999 V2000
  139.2750  138.9500  154.3390 C   0  0  0  0  0  0  0  0  0  0  0  0
  139.2070  140.0680  153.8360 O   0  0  0  0  0  0  0  0  0  0  0  0
  137.8760  136.9750  154.7770 C   0  0  0  0  0  3  0  0  0  0  0  0
  138.0770  138.2920  154.9320 C   0  0  0  0  0  3  0  0  0  0  0  0
  134.6280  135.0210  155.0450 C   0  0  0  0  0  0  0  0  0  0  0  0
  135.7070  135.7280  154.5050 C   0  0  0  0  0  3  0  0  0  0  0  0
  136.7200  136.2490  155.3260 C   0  0  0  0  0  0  0  0  0  0  0  0
  136.6550  136.0230  156.7060 C   0  0  0  0  0  3  0  0  0  0  0  0
  135.5840  135.3200  157.2610 C   0  0  0  0  0  3  0  0  0  0  0  0
  134.5760  134.8290  156.4310 C   0  0  0  0  0  0  0  0  0  0  0  0
  133.5500  134.8100  152.9290 C   0  0  0  0  0  1  0  0  0  0  0  0
  133.5980  134.4890  154.3130 O   0  0  0  0  0  0  0  0  0  0  0  0
  133.5230  134.1440  156.9740 O   0  0  0  0  0  0  0  0  0  0  0  0
  133.3180  134.2450  157.8820 H   0  0  0  0  0  0  0  0  0  0  0  0
  140.5550  138.1370  154.3590 C   0  0  0  0  0  2  0  0  0  0  0  0
  141.0280  137.7760  152.9530 C   0  0  0  0  0  2  0  0  0  0  0  0
  142.5450  137.9420  152.8310 C   0  0  0  0  0  2  0  0  0  0  0  0
  143.1320  138.6640  154.0450 C   0  0  0  0  0  2  0  0  0  0  0  0
  144.5790  138.3030  154.2870 C   0  0  0  0  0  0  0  0  0  0  0  0
  145.0710  137.0540  153.8800 C   0  0  0  0  0  3  0  0  0  0  0  0
  146.4120  136.7160  154.0820 C   0  0  0  0  0  3  0  0  0  0  0  0
  147.2620  137.6270  154.7000 C   0  0  0  0  0  0  0  0  0  0  0  0
  146.7900  138.8650  155.1230 C   0  0  0  0  0  3  0  0  0  0  0  0
  145.4480  139.2010  154.9200 C   0  0  0  0  0  3  0  0  0  0  0  0
  148.5780  137.3400  154.9080 O   0  0  0  0  0  0  0  0  0  0  0  0
  149.2360  137.7470  154.3800 H   0  0  0  0  0  0  0  0  0  0  0  0
  1 15  1  0  0  0  0
  1  4  1  0  0  0  0
  2  1  2  0  0  0  0
  3  4  2  0  0  0  0
  3  7  1  0  0  0  0
  5 10  1  0  0  0  0
  6  5  2  0  0  0  0
  6  7  1  0  0  0  0
  7  8  2  0  0  0  0
  8  9  1  0  0  0  0
 10 13  1  0  0  0  0
 10  9  2  0  0  0  0
 11 12  1  0  0  0  0
 12  5  1  0  0  0  0
 13 14  1  0  0  0  0
 16 15  1  0  0  0  0
 17 16  1  0  0  0  0
 17 18  1  0  0  0  0
 18 19  1  0  0  0  0
 19 24  1  0  0  0  0
 20 21  1  0  0  0  0
 20 19  2  0  0  0  0
 21 22  2  0  0  0  0
 22 25  1  0  0  0  0
 22 23  1  0  0  0  0
 24 23  2  0  0  0  0
 26 25  1  0  0  0  0
M  END
>  <MODEL>
4

>  <REMARK>
 VINA RESULT:    -6.646      6.451      9.827
 INTER + INTRA:         -11.695
 INTER:                 -10.891
 INTRA:                  -0.803
 UNBOUND:                -1.553
  Name = CHEMBL3342739
  11 active torsions:
  status: ('A' for Active; 'I' for Inactive)
    1  A    between atoms: C_1  and  O_2
    2  A    between atoms: O_2  and  C_3
    3  A    between atoms: C_5  and  C_6
    4  A    between atoms: C_7  and  C_8
    5  A    between atoms: C_8  and  C_10
    6  A    between atoms: C_10  and  C_11
    7  A    between atoms: C_11  and  C_12
    8  A    between atoms: C_12  and  C_13
    9  A    between atoms: C_13  and  C_14
   10  A    between atoms: C_17  and  O_18
   11  A    between atoms: C_23  and  O_24
                            x       y       z     vdW  Elec       q    Type
                         _______ _______ _______ _____ _____    ______ ____

>  <TORSDO>
F 10

>  <SCORE>
-6.646

>  <RMSD_LB>
6.451

>  <RMSD_UB>
9.827

$$$$
CHEMBL3342739
 OpenBabel10172500463D

 26 27  0  0  0  0  0  0  0  0999 V2000
  145.8750  136.6440  152.8060 C   0  0  0  0  0  0  0  0  0  0  0  0
  145.9410  135.9350  151.8050 O   0  0  0  0  0  0  0  0  0  0  0  0
  143.5550  137.3890  152.4650 C   0  0  0  0  0  3  0  0  0  0  0  0
  144.5670  137.1490  153.3120 C   0  0  0  0  0  3  0  0  0  0  0  0
  139.8940  138.4020  152.4160 C   0  0  0  0  0  0  0  0  0  0  0  0
  141.1460  137.9430  151.9950 C   0  0  0  0  0  3  0  0  0  0  0  0
  142.2360  137.8900  152.8800 C   0  0  0  0  0  0  0  0  0  0  0  0
  142.0460  138.2760  154.2120 C   0  0  0  0  0  3  0  0  0  0  0  0
  140.8020  138.7370  154.6470 C   0  0  0  0  0  3  0  0  0  0  0  0
  139.7370  138.8030  153.7490 C   0  0  0  0  0  0  0  0  0  0  0  0
  138.0670  137.2880  151.3650 C   0  0  0  0  0  1  0  0  0  0  0  0
  138.7850  138.4900  151.6150 O   0  0  0  0  0  0  0  0  0  0  0  0
  138.5180  139.2590  154.1730 O   0  0  0  0  0  0  0  0  0  0  0  0
  138.0770  139.9300  153.6910 H   0  0  0  0  0  0  0  0  0  0  0  0
  147.0930  137.0220  153.6250 C   0  0  0  0  0  2  0  0  0  0  0  0
  146.7130  137.7100  154.9340 C   0  0  0  0  0  2  0  0  0  0  0  0
  147.4060  139.0710  155.0530 C   0  0  0  0  0  2  0  0  0  0  0  0
  148.2330  139.3920  153.8080 C   0  0  0  0  0  2  0  0  0  0  0  0
  147.5310  140.3570  152.8820 C   0  0  0  0  0  0  0  0  0  0  0  0
  146.8960  141.4960  153.4010 C   0  0  0  0  0  3  0  0  0  0  0  0
  146.2590  142.4060  152.5530 C   0  0  0  0  0  3  0  0  0  0  0  0
  146.2490  142.1720  151.1820 C   0  0  0  0  0  0  0  0  0  0  0  0
  146.8610  141.0430  150.6490 C   0  0  0  0  0  3  0  0  0  0  0  0
  147.4980  140.1340  151.4990 C   0  0  0  0  0  3  0  0  0  0  0  0
  145.6460  143.0390  150.3200 O   0  0  0  0  0  0  0  0  0  0  0  0
  144.7200  143.1710  150.3600 H   0  0  0  0  0  0  0  0  0  0  0  0
  1  4  1  0  0  0  0
  1 15  1  0  0  0  0
  2  1  2  0  0  0  0
  3  7  1  0  0  0  0
  3  4  2  0  0  0  0
  5 10  1  0  0  0  0
  6  5  2  0  0  0  0
  6  7  1  0  0  0  0
  7  8  2  0  0  0  0
  8  9  1  0  0  0  0
 10 13  1  0  0  0  0
 10  9  2  0  0  0  0
 11 12  1  0  0  0  0
 12  5  1  0  0  0  0
 14 13  1  0  0  0  0
 15 16  1  0  0  0  0
 16 17  1  0  0  0  0
 18 17  1  0  0  0  0
 19 20  1  0  0  0  0
 19 18  1  0  0  0  0
 21 20  2  0  0  0  0
 22 21  1  0  0  0  0
 23 22  2  0  0  0  0
 23 24  1  0  0  0  0
 24 19  2  0  0  0  0
 25 26  1  0  0  0  0
 25 22  1  0  0  0  0
M  END
>  <MODEL>
5

>  <REMARK>
 VINA RESULT:    -6.633      3.137      6.452
 INTER + INTRA:         -11.675
 INTER:                 -10.405
 INTRA:                  -1.271
 UNBOUND:                -1.553
  Name = CHEMBL3342739
  11 active torsions:
  status: ('A' for Active; 'I' for Inactive)
    1  A    between atoms: C_1  and  O_2
    2  A    between atoms: O_2  and  C_3
    3  A    between atoms: C_5  and  C_6
    4  A    between atoms: C_7  and  C_8
    5  A    between atoms: C_8  and  C_10
    6  A    between atoms: C_10  and  C_11
    7  A    between atoms: C_11  and  C_12
    8  A    between atoms: C_12  and  C_13
    9  A    between atoms: C_13  and  C_14
   10  A    between atoms: C_17  and  O_18
   11  A    between atoms: C_23  and  O_24
                            x       y       z     vdW  Elec       q    Type
                         _______ _______ _______ _____ _____    ______ ____

>  <TORSDO>
F 10

>  <SCORE>
-6.633

>  <RMSD_LB>
3.137

>  <RMSD_UB>
6.452

$$$$
CHEMBL3342739
 OpenBabel10172500463D

 26 27  0  0  0  0  0  0  0  0999 V2000
  137.6850  138.0240  154.9980 C   0  0  0  0  0  0  0  0  0  0  0  0
  136.9550  138.9400  155.3670 O   0  0  0  0  0  0  0  0  0  0  0  0
  139.4500  137.7270  153.3100 C   0  0  0  0  0  3  0  0  0  0  0  0
  139.0500  138.2900  154.4600 C   0  0  0  0  0  3  0  0  0  0  0  0
  143.0250  138.8900  152.7570 C   0  0  0  0  0  0  0  0  0  0  0  0
  141.7610  138.7240  153.3320 C   0  0  0  0  0  3  0  0  0  0  0  0
  140.7780  137.9340  152.7120 C   0  0  0  0  0  0  0  0  0  0  0  0
  141.0910  137.2820  151.5140 C   0  0  0  0  0  3  0  0  0  0  0  0
  142.3480  137.4390  150.9270 C   0  0  0  0  0  3  0  0  0  0  0  0
  143.3040  138.2440  151.5470 C   0  0  0  0  0  0  0  0  0  0  0  0
  144.5880  139.2080  154.5290 C   0  0  0  0  0  1  0  0  0  0  0  0
  144.0330  139.6470  153.2950 O   0  0  0  0  0  0  0  0  0  0  0  0
  144.5360  138.4020  150.9700 O   0  0  0  0  0  0  0  0  0  0  0  0
  145.0620  137.6520  150.7790 H   0  0  0  0  0  0  0  0  0  0  0  0
  137.2850  136.5650  155.0980 C   0  0  0  0  0  2  0  0  0  0  0  0
  135.9550  136.2860  154.4030 C   0  0  0  0  0  2  0  0  0  0  0  0
  136.1790  135.8870  152.9420 C   0  0  0  0  0  2  0  0  0  0  0  0
  135.8050  134.4250  152.6940 C   0  0  0  0  0  2  0  0  0  0  0  0
  134.9300  134.2530  151.4750 C   0  0  0  0  0  0  0  0  0  0  0  0
  135.4620  134.4490  150.1920 C   0  0  0  0  0  3  0  0  0  0  0  0
  134.6680  134.2740  149.0560 C   0  0  0  0  0  3  0  0  0  0  0  0
  133.3340  133.9100  149.2030 C   0  0  0  0  0  0  0  0  0  0  0  0
  132.7840  133.7230  150.4660 C   0  0  0  0  0  3  0  0  0  0  0  0
  133.5800  133.8990  151.6020 C   0  0  0  0  0  3  0  0  0  0  0  0
  132.5270  133.7210  148.1200 O   0  0  0  0  0  0  0  0  0  0  0  0
  132.8130  133.1810  147.4100 H   0  0  0  0  0  0  0  0  0  0  0  0
  1 15  1  0  0  0  0
  1  2  2  0  0  0  0
  3  4  2  0  0  0  0
  4  1  1  0  0  0  0
  5 12  1  0  0  0  0
  5  6  1  0  0  0  0
  7  3  1  0  0  0  0
  7  6  2  0  0  0  0
  8  7  1  0  0  0  0
  9  8  2  0  0  0  0
  9 10  1  0  0  0  0
 10  5  2  0  0  0  0
 12 11  1  0  0  0  0
 13 10  1  0  0  0  0
 14 13  1  0  0  0  0
 16 15  1  0  0  0  0
 17 16  1  0  0  0  0
 18 17  1  0  0  0  0
 19 24  1  0  0  0  0
 19 18  1  0  0  0  0
 20 19  2  0  0  0  0
 21 22  2  0  0  0  0
 21 20  1  0  0  0  0
 22 23  1  0  0  0  0
 23 24  2  0  0  0  0
 25 22  1  0  0  0  0
 26 25  1  0  0  0  0
M  END
>  <MODEL>
6

>  <REMARK>
 VINA RESULT:    -6.503      6.711      9.269
 INTER + INTRA:         -11.477
 INTER:                 -10.627
 INTRA:                  -0.850
 UNBOUND:                -1.553
  Name = CHEMBL3342739
  11 active torsions:
  status: ('A' for Active; 'I' for Inactive)
    1  A    between atoms: C_1  and  O_2
    2  A    between atoms: O_2  and  C_3
    3  A    between atoms: C_5  and  C_6
    4  A    between atoms: C_7  and  C_8
    5  A    between atoms: C_8  and  C_10
    6  A    between atoms: C_10  and  C_11
    7  A    between atoms: C_11  and  C_12
    8  A    between atoms: C_12  and  C_13
    9  A    between atoms: C_13  and  C_14
   10  A    between atoms: C_17  and  O_18
   11  A    between atoms: C_23  and  O_24
                            x       y       z     vdW  Elec       q    Type
                         _______ _______ _______ _____ _____    ______ ____

>  <TORSDO>
F 10

>  <SCORE>
-6.503

>  <RMSD_LB>
6.711

>  <RMSD_UB>
9.269

$$$$
CHEMBL3342739
 OpenBabel10172500463D

 26 27  0  0  0  0  0  0  0  0999 V2000
  139.2880  138.5560  154.1210 C   0  0  0  0  0  0  0  0  0  0  0  0
  139.3660  139.7630  154.3310 O   0  0  0  0  0  0  0  0  0  0  0  0
  138.0560  137.0330  155.6080 C   0  0  0  0  0  3  0  0  0  0  0  0
  138.0720  137.7800  154.4950 C   0  0  0  0  0  3  0  0  0  0  0  0
  135.5030  135.2710  157.8030 C   0  0  0  0  0  0  0  0  0  0  0  0
  136.6210  136.0120  157.4060 C   0  0  0  0  0  3  0  0  0  0  0  0
  136.8990  136.2370  156.0470 C   0  0  0  0  0  0  0  0  0  0  0  0
  136.0180  135.7330  155.0840 C   0  0  0  0  0  3  0  0  0  0  0  0
  134.8980  134.9910  155.4650 C   0  0  0  0  0  3  0  0  0  0  0  0
  134.6500  134.7600  156.8180 C   0  0  0  0  0  0  0  0  0  0  0  0
  135.0760  136.1090  159.9940 C   0  0  0  0  0  1  0  0  0  0  0  0
  135.1680  135.0030  159.1050 O   0  0  0  0  0  0  0  0  0  0  0  0
  133.5550  134.0280  157.1930 O   0  0  0  0  0  0  0  0  0  0  0  0
  133.6690  133.1970  157.6090 H   0  0  0  0  0  0  0  0  0  0  0  0
  140.3890  137.7710  153.4340 C   0  0  0  0  0  2  0  0  0  0  0  0
  141.0110  138.5470  152.2770 C   0  0  0  0  0  2  0  0  0  0  0  0
  142.5330  138.6250  152.4310 C   0  0  0  0  0  2  0  0  0  0  0  0
  142.9460  138.7020  153.9000 C   0  0  0  0  0  2  0  0  0  0  0  0
  144.3940  138.3290  154.1120 C   0  0  0  0  0  0  0  0  0  0  0  0
  145.2800  139.2440  154.7000 C   0  0  0  0  0  3  0  0  0  0  0  0
  146.6170  138.9030  154.9180 C   0  0  0  0  0  3  0  0  0  0  0  0
  147.0730  137.6450  154.5400 C   0  0  0  0  0  0  0  0  0  0  0  0
  146.2150  136.7280  153.9440 C   0  0  0  0  0  3  0  0  0  0  0  0
  144.8770  137.0710  153.7260 C   0  0  0  0  0  3  0  0  0  0  0  0
  148.3680  137.2700  154.7430 O   0  0  0  0  0  0  0  0  0  0  0  0
  148.6440  136.9730  155.5880 H   0  0  0  0  0  0  0  0  0  0  0  0
  1  2  2  0  0  0  0
  1  4  1  0  0  0  0
  3  7  1  0  0  0  0
  4  3  2  0  0  0  0
  5 12  1  0  0  0  0
  6  5  1  0  0  0  0
  7  6  2  0  0  0  0
  8  9  2  0  0  0  0
  8  7  1  0  0  0  0
  9 10  1  0  0  0  0
 10 13  1  0  0  0  0
 10  5  2  0  0  0  0
 12 11  1  0  0  0  0
 13 14  1  0  0  0  0
 15  1  1  0  0  0  0
 16 17  1  0  0  0  0
 16 15  1  0  0  0  0
 17 18  1  0  0  0  0
 18 19  1  0  0  0  0
 19 20  1  0  0  0  0
 20 21  2  0  0  0  0
 22 25  1  0  0  0  0
 22 21  1  0  0  0  0
 23 22  2  0  0  0  0
 24 23  1  0  0  0  0
 24 19  2  0  0  0  0
 25 26  1  0  0  0  0
M  END
>  <MODEL>
7

>  <REMARK>
 VINA RESULT:    -6.451      6.486      9.641
 INTER + INTRA:         -11.398
 INTER:                 -10.647
 INTRA:                  -0.752
 UNBOUND:                -1.553
  Name = CHEMBL3342739
  11 active torsions:
  status: ('A' for Active; 'I' for Inactive)
    1  A    between atoms: C_1  and  O_2
    2  A    between atoms: O_2  and  C_3
    3  A    between atoms: C_5  and  C_6
    4  A    between atoms: C_7  and  C_8
    5  A    between atoms: C_8  and  C_10
    6  A    between atoms: C_10  and  C_11
    7  A    between atoms: C_11  and  C_12
    8  A    between atoms: C_12  and  C_13
    9  A    between atoms: C_13  and  C_14
   10  A    between atoms: C_17  and  O_18
   11  A    between atoms: C_23  and  O_24
                            x       y       z     vdW  Elec       q    Type
                         _______ _______ _______ _____ _____    ______ ____

>  <TORSDO>
F 10

>  <SCORE>
-6.451

>  <RMSD_LB>
6.486

>  <RMSD_UB>
9.641

$$$$
CHEMBL3342739
 OpenBabel10172500463D

 26 27  0  0  0  0  0  0  0  0999 V2000
  145.9260  140.3360  147.9260 C   0  0  0  0  0  0  0  0  0  0  0  0
  146.4490  141.0740  147.0950 O   0  0  0  0  0  0  0  0  0  0  0  0
  146.6030  141.0840  150.1690 C   0  0  0  0  0  3  0  0  0  0  0  0
  146.5510  140.1010  149.2580 C   0  0  0  0  0  3  0  0  0  0  0  0
  148.2480  139.5860  153.2490 C   0  0  0  0  0  0  0  0  0  0  0  0
  147.6600  139.6990  151.9850 C   0  0  0  0  0  3  0  0  0  0  0  0
  147.2030  140.9380  151.5040 C   0  0  0  0  0  0  0  0  0  0  0  0
  147.3730  142.0770  152.2990 C   0  0  0  0  0  3  0  0  0  0  0  0
  147.9580  141.9790  153.5640 C   0  0  0  0  0  3  0  0  0  0  0  0
  148.3860  140.7370  154.0330 C   0  0  0  0  0  0  0  0  0  0  0  0
  149.3060  137.4770  152.9020 C   0  0  0  0  0  1  0  0  0  0  0  0
  148.7130  138.4150  153.7910 O   0  0  0  0  0  0  0  0  0  0  0  0
  148.9550  140.6400  155.2740 O   0  0  0  0  0  0  0  0  0  0  0  0
  149.6060  141.2590  155.5400 H   0  0  0  0  0  0  0  0  0  0  0  0
  144.5970  139.6460  147.6880 C   0  0  0  0  0  2  0  0  0  0  0  0
  143.5840  139.9570  148.7860 C   0  0  0  0  0  2  0  0  0  0  0  0
  142.9250  138.6730  149.2970 C   0  0  0  0  0  2  0  0  0  0  0  0
  143.9510  137.7210  149.9140 C   0  0  0  0  0  2  0  0  0  0  0  0
  144.2450  138.0490  151.3590 C   0  0  0  0  0  0  0  0  0  0  0  0
  143.8360  139.2760  151.9010 C   0  0  0  0  0  3  0  0  0  0  0  0
  144.0860  139.5820  153.2410 C   0  0  0  0  0  3  0  0  0  0  0  0
  144.7560  138.6610  154.0400 C   0  0  0  0  0  0  0  0  0  0  0  0
  145.1810  137.4450  153.5190 C   0  0  0  0  0  3  0  0  0  0  0  0
  144.9300  137.1400  152.1770 C   0  0  0  0  0  3  0  0  0  0  0  0
  145.0120  138.9180  155.3550 O   0  0  0  0  0  0  0  0  0  0  0  0
  144.8570  139.7730  155.7050 H   0  0  0  0  0  0  0  0  0  0  0  0
  1  4  1  0  0  0  0
  2  1  2  0  0  0  0
  3  7  1  0  0  0  0
  4  3  2  0  0  0  0
  5 12  1  0  0  0  0
  5 10  1  0  0  0  0
  6  5  2  0  0  0  0
  7  6  1  0  0  0  0
  7  8  2  0  0  0  0
  8  9  1  0  0  0  0
  9 10  2  0  0  0  0
 10 13  1  0  0  0  0
 11 12  1  0  0  0  0
 13 14  1  0  0  0  0
 15  1  1  0  0  0  0
 15 16  1  0  0  0  0
 16 17  1  0  0  0  0
 17 18  1  0  0  0  0
 18 19  1  0  0  0  0
 19 20  2  0  0  0  0
 19 24  1  0  0  0  0
 20 21  1  0  0  0  0
 21 22  2  0  0  0  0
 22 25  1  0  0  0  0
 23 22  1  0  0  0  0
 24 23  2  0  0  0  0
 25 26  1  0  0  0  0
M  END
>  <MODEL>
8

>  <REMARK>
 VINA RESULT:    -6.401      2.462      3.311
 INTER + INTRA:         -11.321
 INTER:                  -9.042
 INTRA:                  -2.279
 UNBOUND:                -1.553
  Name = CHEMBL3342739
  11 active torsions:
  status: ('A' for Active; 'I' for Inactive)
    1  A    between atoms: C_1  and  O_2
    2  A    between atoms: O_2  and  C_3
    3  A    between atoms: C_5  and  C_6
    4  A    between atoms: C_7  and  C_8
    5  A    between atoms: C_8  and  C_10
    6  A    between atoms: C_10  and  C_11
    7  A    between atoms: C_11  and  C_12
    8  A    between atoms: C_12  and  C_13
    9  A    between atoms: C_13  and  C_14
   10  A    between atoms: C_17  and  O_18
   11  A    between atoms: C_23  and  O_24
                            x       y       z     vdW  Elec       q    Type
                         _______ _______ _______ _____ _____    ______ ____

>  <TORSDO>
F 10

>  <SCORE>
-6.401

>  <RMSD_LB>
2.462

>  <RMSD_UB>
3.311

$$$$
CHEMBL3342739
 OpenBabel10172500463D

 26 27  0  0  0  0  0  0  0  0999 V2000
  139.6560  138.7410  151.1560 C   0  0  0  0  0  0  0  0  0  0  0  0
  140.1690  139.8440  150.9830 O   0  0  0  0  0  0  0  0  0  0  0  0
  137.7150  137.2650  150.8300 C   0  0  0  0  0  3  0  0  0  0  0  0
  138.4070  138.3470  150.4440 C   0  0  0  0  0  3  0  0  0  0  0  0
  134.3820  135.5510  150.2030 C   0  0  0  0  0  0  0  0  0  0  0  0
  135.5650  135.9580  150.8290 C   0  0  0  0  0  3  0  0  0  0  0  0
  136.4770  136.8070  150.1810 C   0  0  0  0  0  0  0  0  0  0  0  0
  136.1720  137.2730  148.8970 C   0  0  0  0  0  3  0  0  0  0  0  0
  134.9950  136.8750  148.2580 C   0  0  0  0  0  3  0  0  0  0  0  0
  134.1120  136.0150  148.9100 C   0  0  0  0  0  0  0  0  0  0  0  0
  133.7400  133.3300  150.7860 C   0  0  0  0  0  1  0  0  0  0  0  0
  133.4470  134.7220  150.7650 O   0  0  0  0  0  0  0  0  0  0  0  0
  132.9610  135.6210  148.2830 O   0  0  0  0  0  0  0  0  0  0  0  0
  132.5870  134.7840  148.4750 H   0  0  0  0  0  0  0  0  0  0  0  0
  140.2630  137.6870  152.0610 C   0  0  0  0  0  2  0  0  0  0  0  0
  140.3470  138.1550  153.5110 C   0  0  0  0  0  2  0  0  0  0  0  0
  138.9530  138.4550  154.0680 C   0  0  0  0  0  2  0  0  0  0  0  0
  138.7690  137.8720  155.4690 C   0  0  0  0  0  2  0  0  0  0  0  0
  137.5820  136.9410  155.5540 C   0  0  0  0  0  0  0  0  0  0  0  0
  137.1800  136.4230  156.7950 C   0  0  0  0  0  3  0  0  0  0  0  0
  136.0730  135.5760  156.8890 C   0  0  0  0  0  3  0  0  0  0  0  0
  135.3690  135.2390  155.7380 C   0  0  0  0  0  0  0  0  0  0  0  0
  135.7590  135.7310  154.4980 C   0  0  0  0  0  3  0  0  0  0  0  0
  136.8670  136.5780  154.4050 C   0  0  0  0  0  3  0  0  0  0  0  0
  134.2780  134.4220  155.7880 O   0  0  0  0  0  0  0  0  0  0  0  0
  133.4180  134.7830  155.6940 H   0  0  0  0  0  0  0  0  0  0  0  0
  1 15  1  0  0  0  0
  2  1  2  0  0  0  0
  4  3  2  0  0  0  0
  4  1  1  0  0  0  0
  5 12  1  0  0  0  0
  5  6  1  0  0  0  0
  7  6  2  0  0  0  0
  7  3  1  0  0  0  0
  8  7  1  0  0  0  0
  9  8  2  0  0  0  0
  9 10  1  0  0  0  0
 10  5  2  0  0  0  0
 12 11  1  0  0  0  0
 13 14  1  0  0  0  0
 13 10  1  0  0  0  0
 15 16  1  0  0  0  0
 16 17  1  0  0  0  0
 17 18  1  0  0  0  0
 18 19  1  0  0  0  0
 19 20  1  0  0  0  0
 20 21  2  0  0  0  0
 22 25  1  0  0  0  0
 22 21  1  0  0  0  0
 23 22  2  0  0  0  0
 24 23  1  0  0  0  0
 24 19  2  0  0  0  0
 26 25  1  0  0  0  0
M  END
>  <MODEL>
9

>  <REMARK>
 VINA RESULT:    -6.299      7.812     11.246
 INTER + INTRA:         -11.165
 INTER:                  -9.612
 INTRA:                  -1.553
 UNBOUND:                -1.553
  Name = CHEMBL3342739
  11 active torsions:
  status: ('A' for Active; 'I' for Inactive)
    1  A    between atoms: C_1  and  O_2
    2  A    between atoms: O_2  and  C_3
    3  A    between atoms: C_5  and  C_6
    4  A    between atoms: C_7  and  C_8
    5  A    between atoms: C_8  and  C_10
    6  A    between atoms: C_10  and  C_11
    7  A    between atoms: C_11  and  C_12
    8  A    between atoms: C_12  and  C_13
    9  A    between atoms: C_13  and  C_14
   10  A    between atoms: C_17  and  O_18
   11  A    between atoms: C_23  and  O_24
                            x       y       z     vdW  Elec       q    Type
                         _______ _______ _______ _____ _____    ______ ____

>  <TORSDO>
F 10

>  <SCORE>
-6.299

>  <RMSD_LB>
7.812

>  <RMSD_UB>
11.246

$$$$
