CHEMBL594765
 OpenBabel10172500543D

 24 25  0  0  0  0  0  0  0  0999 V2000
  144.9320  137.1590  153.3050 C   0  0  0  0  0  2  0  0  0  0  0  0
  146.2680  137.6450  153.8030 C   0  0  0  0  0  3  0  0  0  0  0  0
  146.4010  138.6520  154.6800 C   0  0  0  0  0  3  0  0  0  0  0  0
  147.7390  139.1100  155.1440 C   0  0  0  0  0  0  0  0  0  0  0  0
  148.2340  138.6810  156.1840 O   0  0  0  0  0  0  0  0  0  0  0  0
  148.4180  140.1590  154.2830 C   0  0  0  0  0  2  0  0  0  0  0  0
  147.6080  141.4490  154.2500 C   0  0  0  0  0  2  0  0  0  0  0  0
  147.2240  141.8460  152.8450 C   0  0  0  0  0  0  0  0  0  0  0  0
  145.9000  142.1870  152.5390 C   0  0  0  0  0  3  0  0  0  0  0  0
  145.5550  142.5990  151.2500 C   0  0  0  0  0  3  0  0  0  0  0  0
  146.5290  142.6620  150.2550 C   0  0  0  0  0  3  0  0  0  0  0  0
  147.8430  142.3000  150.5430 C   0  0  0  0  0  3  0  0  0  0  0  0
  148.1890  141.8880  151.8310 C   0  0  0  0  0  3  0  0  0  0  0  0
  143.9460  138.3120  153.0790 C   0  0  0  0  0  2  0  0  0  0  0  0
  145.3080  139.2110  149.6290 C   0  0  0  0  0  0  0  0  0  0  0  0
  145.2080  138.6910  150.9220 C   0  0  0  0  0  3  0  0  0  0  0  0
  144.0540  138.8990  151.6970 C   0  0  0  0  0  0  0  0  0  0  0  0
  143.0010  139.6570  151.1680 C   0  0  0  0  0  3  0  0  0  0  0  0
  143.0900  140.1830  149.8800 C   0  0  0  0  0  3  0  0  0  0  0  0
  144.2370  139.9570  149.1190 C   0  0  0  0  0  0  0  0  0  0  0  0
  146.8690  137.7230  148.6080 C   0  0  0  0  0  1  0  0  0  0  0  0
  146.3850  139.0450  148.7950 O   0  0  0  0  0  0  0  0  0  0  0  0
  144.3180  140.4700  147.8520 O   0  0  0  0  0  0  0  0  0  0  0  0
  143.6740  140.2400  147.2110 H   0  0  0  0  0  0  0  0  0  0  0  0
  1  2  1  0  0  0  0
  2  3  2  0  0  0  0
  3  4  1  0  0  0  0
  4  5  2  0  0  0  0
  6  4  1  0  0  0  0
  7  6  1  0  0  0  0
  8  7  1  0  0  0  0
  9  8  1  0  0  0  0
 10  9  2  0  0  0  0
 11 12  2  0  0  0  0
 11 10  1  0  0  0  0
 12 13  1  0  0  0  0
 13  8  2  0  0  0  0
 14  1  1  0  0  0  0
 15 16  1  0  0  0  0
 16 17  2  0  0  0  0
 17 14  1  0  0  0  0
 18 17  1  0  0  0  0
 19 18  2  0  0  0  0
 20 15  2  0  0  0  0
 20 19  1  0  0  0  0
 21 22  1  0  0  0  0
 22 15  1  0  0  0  0
 23 20  1  0  0  0  0
 24 23  1  0  0  0  0
M  END
>  <MODEL>
1

>  <REMARK>
 VINA RESULT:    -6.979      0.000      0.000
 INTER + INTRA:         -12.359
 INTER:                 -10.252
 INTRA:                  -2.107
 UNBOUND:                -1.913
  Name = CHEMBL594765
  10 active torsions:
  status: ('A' for Active; 'I' for Inactive)
    1  A    between atoms: C_1  and  O_2
    2  A    between atoms: O_2  and  C_3
    3  A    between atoms: C_5  and  C_6
    4  A    between atoms: C_6  and  C_7
    5  A    between atoms: C_7  and  C_8
    6  A    between atoms: C_9  and  C_10
    7  A    between atoms: C_10  and  C_12
    8  A    between atoms: C_12  and  C_13
    9  A    between atoms: C_13  and  C_14
   10  A    between atoms: C_22  and  O_23
                            x       y       z     vdW  Elec       q    Type
                         _______ _______ _______ _____ _____    ______ ____

>  <TORSDO>
F 9

>  <SCORE>
-6.979

>  <RMSD_LB>
0.000

>  <RMSD_UB>
0.000

$$$$
CHEMBL594765
 OpenBabel10172500543D

 24 25  0  0  0  0  0  0  0  0999 V2000
  145.3910  137.5840  152.0930 C   0  0  0  0  0  2  0  0  0  0  0  0
  146.5660  138.1110  152.8750 C   0  0  0  0  0  3  0  0  0  0  0  0
  146.4790  138.4960  154.1580 C   0  0  0  0  0  3  0  0  0  0  0  0
  147.6610  139.0190  154.8970 C   0  0  0  0  0  0  0  0  0  0  0  0
  147.8640  138.7150  156.0700 O   0  0  0  0  0  0  0  0  0  0  0  0
  148.5560  139.9720  154.1280 C   0  0  0  0  0  2  0  0  0  0  0  0
  148.0020  141.3910  154.1610 C   0  0  0  0  0  2  0  0  0  0  0  0
  147.4020  141.8000  152.8380 C   0  0  0  0  0  0  0  0  0  0  0  0
  146.0250  142.0340  152.7230 C   0  0  0  0  0  3  0  0  0  0  0  0
  145.4780  142.4570  151.5100 C   0  0  0  0  0  3  0  0  0  0  0  0
  146.3010  142.6390  150.4000 C   0  0  0  0  0  3  0  0  0  0  0  0
  147.6670  142.3850  150.4970 C   0  0  0  0  0  3  0  0  0  0  0  0
  148.2160  141.9620  151.7090 C   0  0  0  0  0  3  0  0  0  0  0  0
  144.0770  138.2610  152.4980 C   0  0  0  0  0  2  0  0  0  0  0  0
  141.4340  139.3460  149.9670 C   0  0  0  0  0  0  0  0  0  0  0  0
  142.3790  139.3790  150.9960 C   0  0  0  0  0  3  0  0  0  0  0  0
  143.0410  138.2090  151.4070 C   0  0  0  0  0  0  0  0  0  0  0  0
  142.7290  136.9920  150.7890 C   0  0  0  0  0  3  0  0  0  0  0  0
  141.7860  136.9450  149.7620 C   0  0  0  0  0  3  0  0  0  0  0  0
  141.1470  138.1170  149.3560 C   0  0  0  0  0  0  0  0  0  0  0  0
  139.6420  140.8960  150.2420 C   0  0  0  0  0  1  0  0  0  0  0  0
  140.7540  140.4370  149.4880 O   0  0  0  0  0  0  0  0  0  0  0  0
  140.2270  138.0690  148.3440 O   0  0  0  0  0  0  0  0  0  0  0  0
  139.3660  137.7370  148.5090 H   0  0  0  0  0  0  0  0  0  0  0  0
  1 14  1  0  0  0  0
  1  2  1  0  0  0  0
  2  3  2  0  0  0  0
  3  4  1  0  0  0  0
  4  5  2  0  0  0  0
  6  7  1  0  0  0  0
  6  4  1  0  0  0  0
  8  7  1  0  0  0  0
  9  8  1  0  0  0  0
 10  9  2  0  0  0  0
 11 12  2  0  0  0  0
 11 10  1  0  0  0  0
 12 13  1  0  0  0  0
 13  8  2  0  0  0  0
 15 16  1  0  0  0  0
 16 17  2  0  0  0  0
 17 14  1  0  0  0  0
 18 17  1  0  0  0  0
 19 18  2  0  0  0  0
 20 19  1  0  0  0  0
 20 15  2  0  0  0  0
 22 15  1  0  0  0  0
 22 21  1  0  0  0  0
 23 24  1  0  0  0  0
 23 20  1  0  0  0  0
M  END
>  <MODEL>
2

>  <REMARK>
 VINA RESULT:    -6.629      1.986      2.829
 INTER + INTRA:         -11.835
 INTER:                 -10.361
 INTRA:                  -1.474
 UNBOUND:                -1.913
  Name = CHEMBL594765
  10 active torsions:
  status: ('A' for Active; 'I' for Inactive)
    1  A    between atoms: C_1  and  O_2
    2  A    between atoms: O_2  and  C_3
    3  A    between atoms: C_5  and  C_6
    4  A    between atoms: C_6  and  C_7
    5  A    between atoms: C_7  and  C_8
    6  A    between atoms: C_9  and  C_10
    7  A    between atoms: C_10  and  C_12
    8  A    between atoms: C_12  and  C_13
    9  A    between atoms: C_13  and  C_14
   10  A    between atoms: C_22  and  O_23
                            x       y       z     vdW  Elec       q    Type
                         _______ _______ _______ _____ _____    ______ ____

>  <TORSDO>
F 9

>  <SCORE>
-6.629

>  <RMSD_LB>
1.986

>  <RMSD_UB>
2.829

$$$$
CHEMBL594765
 OpenBabel10172500543D

 24 25  0  0  0  0  0  0  0  0999 V2000
  142.2360  139.3130  151.8340 C   0  0  0  0  0  2  0  0  0  0  0  0
  142.9020  139.8540  150.5960 C   0  0  0  0  0  3  0  0  0  0  0  0
  144.1870  139.6150  150.2900 C   0  0  0  0  0  3  0  0  0  0  0  0
  144.8130  140.1740  149.0610 C   0  0  0  0  0  0  0  0  0  0  0  0
  144.2450  140.1140  147.9740 O   0  0  0  0  0  0  0  0  0  0  0  0
  146.1970  140.7710  149.2330 C   0  0  0  0  0  2  0  0  0  0  0  0
  146.1310  142.1040  149.9680 C   0  0  0  0  0  2  0  0  0  0  0  0
  146.7940  142.0430  151.3230 C   0  0  0  0  0  0  0  0  0  0  0  0
  146.0320  142.1480  152.4930 C   0  0  0  0  0  3  0  0  0  0  0  0
  146.6400  142.0450  153.7460 C   0  0  0  0  0  3  0  0  0  0  0  0
  148.0170  141.8470  153.8380 C   0  0  0  0  0  3  0  0  0  0  0  0
  148.7870  141.7670  152.6790 C   0  0  0  0  0  3  0  0  0  0  0  0
  148.1800  141.8700  151.4270 C   0  0  0  0  0  3  0  0  0  0  0  0
  141.9360  137.8140  151.7190 C   0  0  0  0  0  2  0  0  0  0  0  0
  138.7230  136.7250  149.9700 C   0  0  0  0  0  0  0  0  0  0  0  0
  140.0680  137.0110  150.2160 C   0  0  0  0  0  3  0  0  0  0  0  0
  140.4800  137.5360  151.4540 C   0  0  0  0  0  0  0  0  0  0  0  0
  139.5210  137.7960  152.4410 C   0  0  0  0  0  3  0  0  0  0  0  0
  138.1750  137.5180  152.2060 C   0  0  0  0  0  3  0  0  0  0  0  0
  137.7840  136.9840  150.9780 C   0  0  0  0  0  0  0  0  0  0  0  0
  138.5590  134.8460  148.5090 C   0  0  0  0  0  1  0  0  0  0  0  0
  138.2320  136.1960  148.8030 O   0  0  0  0  0  0  0  0  0  0  0  0
  136.4620  136.7070  150.7520 O   0  0  0  0  0  0  0  0  0  0  0  0
  136.0130  137.1130  150.0360 H   0  0  0  0  0  0  0  0  0  0  0  0
  2  1  1  0  0  0  0
  3  2  2  0  0  0  0
  4  6  1  0  0  0  0
  4  3  1  0  0  0  0
  5  4  2  0  0  0  0
  6  7  1  0  0  0  0
  7  8  1  0  0  0  0
  8 13  2  0  0  0  0
  8  9  1  0  0  0  0
  9 10  2  0  0  0  0
 10 11  1  0  0  0  0
 12 11  2  0  0  0  0
 13 12  1  0  0  0  0
 14  1  1  0  0  0  0
 15 16  2  0  0  0  0
 15 20  1  0  0  0  0
 16 17  1  0  0  0  0
 17 14  1  0  0  0  0
 17 18  2  0  0  0  0
 19 18  1  0  0  0  0
 20 19  2  0  0  0  0
 21 22  1  0  0  0  0
 22 15  1  0  0  0  0
 23 20  1  0  0  0  0
 24 23  1  0  0  0  0
M  END
>  <MODEL>
3

>  <REMARK>
 VINA RESULT:    -6.396      3.866      5.617
 INTER + INTRA:         -11.486
 INTER:                 -10.454
 INTRA:                  -1.032
 UNBOUND:                -1.913
  Name = CHEMBL594765
  10 active torsions:
  status: ('A' for Active; 'I' for Inactive)
    1  A    between atoms: C_1  and  O_2
    2  A    between atoms: O_2  and  C_3
    3  A    between atoms: C_5  and  C_6
    4  A    between atoms: C_6  and  C_7
    5  A    between atoms: C_7  and  C_8
    6  A    between atoms: C_9  and  C_10
    7  A    between atoms: C_10  and  C_12
    8  A    between atoms: C_12  and  C_13
    9  A    between atoms: C_13  and  C_14
   10  A    between atoms: C_22  and  O_23
                            x       y       z     vdW  Elec       q    Type
                         _______ _______ _______ _____ _____    ______ ____

>  <TORSDO>
F 9

>  <SCORE>
-6.396

>  <RMSD_LB>
3.866

>  <RMSD_UB>
5.617

$$$$
CHEMBL594765
 OpenBabel10172500543D

 24 25  0  0  0  0  0  0  0  0999 V2000
  137.3610  136.4090  150.4080 C   0  0  0  0  0  2  0  0  0  0  0  0
  136.4770  136.6310  151.6070 C   0  0  0  0  0  3  0  0  0  0  0  0
  136.6730  136.0200  152.7860 C   0  0  0  0  0  3  0  0  0  0  0  0
  135.7730  136.2590  153.9480 C   0  0  0  0  0  0  0  0  0  0  0  0
  136.1960  136.7530  154.9900 O   0  0  0  0  0  0  0  0  0  0  0  0
  134.3330  135.8150  153.7750 C   0  0  0  0  0  2  0  0  0  0  0  0
  134.2590  134.3660  153.3090 C   0  0  0  0  0  2  0  0  0  0  0  0
  133.7640  134.2480  151.8880 C   0  0  0  0  0  0  0  0  0  0  0  0
  133.9810  133.0740  151.1550 C   0  0  0  0  0  3  0  0  0  0  0  0
  133.4830  132.9480  149.8560 C   0  0  0  0  0  3  0  0  0  0  0  0
  132.7740  133.9990  149.2760 C   0  0  0  0  0  3  0  0  0  0  0  0
  132.5760  135.1800  149.9880 C   0  0  0  0  0  3  0  0  0  0  0  0
  133.0730  135.3070  151.2860 C   0  0  0  0  0  3  0  0  0  0  0  0
  137.1850  135.0080  149.8120 C   0  0  0  0  0  2  0  0  0  0  0  0
  135.3770  133.8330  146.6630 C   0  0  0  0  0  0  0  0  0  0  0  0
  136.1900  133.8470  147.7990 C   0  0  0  0  0  3  0  0  0  0  0  0
  136.3280  135.0120  148.5740 C   0  0  0  0  0  0  0  0  0  0  0  0
  135.6570  136.1780  148.1850 C   0  0  0  0  0  3  0  0  0  0  0  0
  134.8450  136.1770  147.0510 C   0  0  0  0  0  3  0  0  0  0  0  0
  134.7070  135.0100  146.3000 C   0  0  0  0  0  0  0  0  0  0  0  0
  136.3110  132.0140  145.4340 C   0  0  0  0  0  1  0  0  0  0  0  0
  135.1690  132.7420  145.8580 O   0  0  0  0  0  0  0  0  0  0  0  0
  133.9050  135.0110  145.1900 O   0  0  0  0  0  0  0  0  0  0  0  0
  133.1690  135.5900  145.1450 H   0  0  0  0  0  0  0  0  0  0  0  0
  1  2  1  0  0  0  0
  2  3  2  0  0  0  0
  3  4  1  0  0  0  0
  4  5  2  0  0  0  0
  6  4  1  0  0  0  0
  7  6  1  0  0  0  0
  8  7  1  0  0  0  0
  9  8  2  0  0  0  0
 10  9  1  0  0  0  0
 11 10  2  0  0  0  0
 11 12  1  0  0  0  0
 12 13  2  0  0  0  0
 13  8  1  0  0  0  0
 14  1  1  0  0  0  0
 15 16  1  0  0  0  0
 16 17  2  0  0  0  0
 17 14  1  0  0  0  0
 18 17  1  0  0  0  0
 19 18  2  0  0  0  0
 20 15  2  0  0  0  0
 20 19  1  0  0  0  0
 21 22  1  0  0  0  0
 22 15  1  0  0  0  0
 23 20  1  0  0  0  0
 24 23  1  0  0  0  0
M  END
>  <MODEL>
4

>  <REMARK>
 VINA RESULT:    -6.341     10.183     12.715
 INTER + INTRA:         -11.405
 INTER:                  -8.702
 INTRA:                  -2.703
 UNBOUND:                -1.913
  Name = CHEMBL594765
  10 active torsions:
  status: ('A' for Active; 'I' for Inactive)
    1  A    between atoms: C_1  and  O_2
    2  A    between atoms: O_2  and  C_3
    3  A    between atoms: C_5  and  C_6
    4  A    between atoms: C_6  and  C_7
    5  A    between atoms: C_7  and  C_8
    6  A    between atoms: C_9  and  C_10
    7  A    between atoms: C_10  and  C_12
    8  A    between atoms: C_12  and  C_13
    9  A    between atoms: C_13  and  C_14
   10  A    between atoms: C_22  and  O_23
                            x       y       z     vdW  Elec       q    Type
                         _______ _______ _______ _____ _____    ______ ____

>  <TORSDO>
F 9

>  <SCORE>
-6.341

>  <RMSD_LB>
10.183

>  <RMSD_UB>
12.715

$$$$
CHEMBL594765
 OpenBabel10172500543D

 24 25  0  0  0  0  0  0  0  0999 V2000
  145.4940  138.1100  154.3250 C   0  0  0  0  0  2  0  0  0  0  0  0
  146.3760  139.2580  153.9060 C   0  0  0  0  0  3  0  0  0  0  0  0
  146.0680  140.5430  154.1410 C   0  0  0  0  0  3  0  0  0  0  0  0
  146.9610  141.6510  153.7050 C   0  0  0  0  0  0  0  0  0  0  0  0
  147.9040  142.0210  154.4000 O   0  0  0  0  0  0  0  0  0  0  0  0
  146.6050  142.3110  152.3860 C   0  0  0  0  0  2  0  0  0  0  0  0
  147.0320  141.4450  151.2070 C   0  0  0  0  0  2  0  0  0  0  0  0
  145.8510  140.8940  150.4460 C   0  0  0  0  0  0  0  0  0  0  0  0
  144.5920  140.8080  151.0530 C   0  0  0  0  0  3  0  0  0  0  0  0
  143.4900  140.3410  150.3330 C   0  0  0  0  0  3  0  0  0  0  0  0
  143.6410  139.9460  149.0050 C   0  0  0  0  0  3  0  0  0  0  0  0
  144.8950  140.0040  148.4010 C   0  0  0  0  0  3  0  0  0  0  0  0
  145.9970  140.4710  149.1190 C   0  0  0  0  0  3  0  0  0  0  0  0
  145.0130  137.2840  153.1260 C   0  0  0  0  0  2  0  0  0  0  0  0
  141.3140  138.0420  153.6810 C   0  0  0  0  0  0  0  0  0  0  0  0
  142.6830  137.8760  153.9060 C   0  0  0  0  0  3  0  0  0  0  0  0
  143.5350  137.4330  152.8800 C   0  0  0  0  0  0  0  0  0  0  0  0
  142.9960  137.1330  151.6220 C   0  0  0  0  0  3  0  0  0  0  0  0
  141.6310  137.2920  151.3860 C   0  0  0  0  0  3  0  0  0  0  0  0
  140.8000  137.7460  152.4110 C   0  0  0  0  0  0  0  0  0  0  0  0
  140.4590  137.8930  155.9030 C   0  0  0  0  0  1  0  0  0  0  0  0
  140.4110  138.4850  154.6140 O   0  0  0  0  0  0  0  0  0  0  0  0
  139.4610  137.9060  152.1730 O   0  0  0  0  0  0  0  0  0  0  0  0
  138.9520  137.1870  151.8540 H   0  0  0  0  0  0  0  0  0  0  0  0
  2  3  2  0  0  0  0
  2  1  1  0  0  0  0
  4  3  1  0  0  0  0
  4  5  2  0  0  0  0
  6  4  1  0  0  0  0
  7  6  1  0  0  0  0
  8  9  1  0  0  0  0
  8  7  1  0  0  0  0
 10  9  2  0  0  0  0
 11 10  1  0  0  0  0
 12 11  2  0  0  0  0
 12 13  1  0  0  0  0
 13  8  2  0  0  0  0
 14  1  1  0  0  0  0
 15 16  1  0  0  0  0
 15 22  1  0  0  0  0
 17 14  1  0  0  0  0
 17 16  2  0  0  0  0
 18 17  1  0  0  0  0
 19 18  2  0  0  0  0
 19 20  1  0  0  0  0
 20 15  2  0  0  0  0
 22 21  1  0  0  0  0
 23 20  1  0  0  0  0
 24 23  1  0  0  0  0
M  END
>  <MODEL>
5

>  <REMARK>
 VINA RESULT:    -6.257      2.948      4.392
 INTER + INTRA:         -11.278
 INTER:                  -9.397
 INTRA:                  -1.882
 UNBOUND:                -1.913
  Name = CHEMBL594765
  10 active torsions:
  status: ('A' for Active; 'I' for Inactive)
    1  A    between atoms: C_1  and  O_2
    2  A    between atoms: O_2  and  C_3
    3  A    between atoms: C_5  and  C_6
    4  A    between atoms: C_6  and  C_7
    5  A    between atoms: C_7  and  C_8
    6  A    between atoms: C_9  and  C_10
    7  A    between atoms: C_10  and  C_12
    8  A    between atoms: C_12  and  C_13
    9  A    between atoms: C_13  and  C_14
   10  A    between atoms: C_22  and  O_23
                            x       y       z     vdW  Elec       q    Type
                         _______ _______ _______ _____ _____    ______ ____

>  <TORSDO>
F 9

>  <SCORE>
-6.257

>  <RMSD_LB>
2.948

>  <RMSD_UB>
4.392

$$$$
CHEMBL594765
 OpenBabel10172500543D

 24 25  0  0  0  0  0  0  0  0999 V2000
  146.6150  139.8710  149.2710 C   0  0  0  0  0  2  0  0  0  0  0  0
  146.0010  138.5880  148.7770 C   0  0  0  0  0  3  0  0  0  0  0  0
  145.9630  137.4630  149.5100 C   0  0  0  0  0  3  0  0  0  0  0  0
  145.3540  136.2100  148.9850 C   0  0  0  0  0  0  0  0  0  0  0  0
  145.7760  135.6780  147.9610 O   0  0  0  0  0  0  0  0  0  0  0  0
  144.1690  135.6710  149.7620 C   0  0  0  0  0  2  0  0  0  0  0  0
  142.9900  136.6340  149.7020 C   0  0  0  0  0  2  0  0  0  0  0  0
  142.5740  137.1140  151.0710 C   0  0  0  0  0  0  0  0  0  0  0  0
  141.2260  137.3660  151.3580 C   0  0  0  0  0  3  0  0  0  0  0  0
  140.8380  137.7660  152.6380 C   0  0  0  0  0  3  0  0  0  0  0  0
  141.7940  137.9260  153.6390 C   0  0  0  0  0  3  0  0  0  0  0  0
  143.1400  137.7030  153.3570 C   0  0  0  0  0  3  0  0  0  0  0  0
  143.5300  137.3040  152.0770 C   0  0  0  0  0  3  0  0  0  0  0  0
  145.8010  140.5010  150.4080 C   0  0  0  0  0  2  0  0  0  0  0  0
  148.2100  139.7880  153.2810 C   0  0  0  0  0  0  0  0  0  0  0  0
  147.4390  139.6330  152.1260 C   0  0  0  0  0  3  0  0  0  0  0  0
  146.6060  140.6680  151.6690 C   0  0  0  0  0  0  0  0  0  0  0  0
  146.5340  141.8620  152.3980 C   0  0  0  0  0  3  0  0  0  0  0  0
  147.2960  142.0280  153.5540 C   0  0  0  0  0  3  0  0  0  0  0  0
  148.1280  140.9960  153.9870 C   0  0  0  0  0  0  0  0  0  0  0  0
  148.4820  137.6960  154.3960 C   0  0  0  0  0  1  0  0  0  0  0  0
  149.0620  138.8420  153.7910 O   0  0  0  0  0  0  0  0  0  0  0  0
  148.8800  141.1650  155.1190 O   0  0  0  0  0  0  0  0  0  0  0  0
  149.2060  140.4170  155.5810 H   0  0  0  0  0  0  0  0  0  0  0  0
  1 14  1  0  0  0  0
  2  1  1  0  0  0  0
  2  3  2  0  0  0  0
  4  3  1  0  0  0  0
  4  6  1  0  0  0  0
  5  4  2  0  0  0  0
  7  6  1  0  0  0  0
  7  8  1  0  0  0  0
  8  9  2  0  0  0  0
  8 13  1  0  0  0  0
  9 10  1  0  0  0  0
 10 11  2  0  0  0  0
 12 11  1  0  0  0  0
 13 12  2  0  0  0  0
 14 17  1  0  0  0  0
 15 22  1  0  0  0  0
 15 20  1  0  0  0  0
 16 15  2  0  0  0  0
 17 16  1  0  0  0  0
 17 18  2  0  0  0  0
 18 19  1  0  0  0  0
 19 20  2  0  0  0  0
 20 23  1  0  0  0  0
 22 21  1  0  0  0  0
 23 24  1  0  0  0  0
M  END
>  <MODEL>
6

>  <REMARK>
 VINA RESULT:    -6.225      2.186      6.328
 INTER + INTRA:         -11.231
 INTER:                  -9.790
 INTRA:                  -1.441
 UNBOUND:                -1.913
  Name = CHEMBL594765
  10 active torsions:
  status: ('A' for Active; 'I' for Inactive)
    1  A    between atoms: C_1  and  O_2
    2  A    between atoms: O_2  and  C_3
    3  A    between atoms: C_5  and  C_6
    4  A    between atoms: C_6  and  C_7
    5  A    between atoms: C_7  and  C_8
    6  A    between atoms: C_9  and  C_10
    7  A    between atoms: C_10  and  C_12
    8  A    between atoms: C_12  and  C_13
    9  A    between atoms: C_13  and  C_14
   10  A    between atoms: C_22  and  O_23
                            x       y       z     vdW  Elec       q    Type
                         _______ _______ _______ _____ _____    ______ ____

>  <TORSDO>
F 9

>  <SCORE>
-6.225

>  <RMSD_LB>
2.186

>  <RMSD_UB>
6.328

$$$$
CHEMBL594765
 OpenBabel10172500543D

 24 25  0  0  0  0  0  0  0  0999 V2000
  145.8740  140.7620  149.3540 C   0  0  0  0  0  2  0  0  0  0  0  0
  144.4070  140.4250  149.3910 C   0  0  0  0  0  3  0  0  0  0  0  0
  143.9300  139.2810  149.9070 C   0  0  0  0  0  3  0  0  0  0  0  0
  142.4720  138.9790  149.9180 C   0  0  0  0  0  0  0  0  0  0  0  0
  141.6490  139.7990  149.5200 O   0  0  0  0  0  0  0  0  0  0  0  0
  142.0780  137.6290  150.4870 C   0  0  0  0  0  2  0  0  0  0  0  0
  142.6390  137.4410  151.8910 C   0  0  0  0  0  2  0  0  0  0  0  0
  141.6460  137.8280  152.9600 C   0  0  0  0  0  0  0  0  0  0  0  0
  140.3050  138.0670  152.6320 C   0  0  0  0  0  3  0  0  0  0  0  0
  139.3780  138.3800  153.6280 C   0  0  0  0  0  3  0  0  0  0  0  0
  139.7860  138.4650  154.9580 C   0  0  0  0  0  3  0  0  0  0  0  0
  141.1220  138.2540  155.2910 C   0  0  0  0  0  3  0  0  0  0  0  0
  142.0500  137.9420  154.2960 C   0  0  0  0  0  3  0  0  0  0  0  0
  146.2120  141.9650  150.2430 C   0  0  0  0  0  2  0  0  0  0  0  0
  148.2040  140.0380  152.8680 C   0  0  0  0  0  0  0  0  0  0  0  0
  147.6220  140.4110  151.6530 C   0  0  0  0  0  3  0  0  0  0  0  0
  146.8120  141.5560  151.5630 C   0  0  0  0  0  0  0  0  0  0  0  0
  146.5690  142.3170  152.7140 C   0  0  0  0  0  3  0  0  0  0  0  0
  147.1420  141.9530  153.9320 C   0  0  0  0  0  3  0  0  0  0  0  0
  147.9550  140.8220  154.0030 C   0  0  0  0  0  0  0  0  0  0  0  0
  148.4160  137.6660  153.0120 C   0  0  0  0  0  1  0  0  0  0  0  0
  149.0200  138.9500  153.0470 O   0  0  0  0  0  0  0  0  0  0  0  0
  148.5200  140.4700  155.1990 O   0  0  0  0  0  0  0  0  0  0  0  0
  149.3340  140.0060  155.2140 H   0  0  0  0  0  0  0  0  0  0  0  0
  1  2  1  0  0  0  0
  1 14  1  0  0  0  0
  2  3  2  0  0  0  0
  3  4  1  0  0  0  0
  4  6  1  0  0  0  0
  5  4  2  0  0  0  0
  6  7  1  0  0  0  0
  7  8  1  0  0  0  0
  8 13  1  0  0  0  0
  9  8  2  0  0  0  0
  9 10  1  0  0  0  0
 10 11  2  0  0  0  0
 11 12  1  0  0  0  0
 13 12  2  0  0  0  0
 14 17  1  0  0  0  0
 15 22  1  0  0  0  0
 15 20  1  0  0  0  0
 16 15  2  0  0  0  0
 17 16  1  0  0  0  0
 17 18  2  0  0  0  0
 18 19  1  0  0  0  0
 19 20  2  0  0  0  0
 20 23  1  0  0  0  0
 21 22  1  0  0  0  0
 23 24  1  0  0  0  0
M  END
>  <MODEL>
7

>  <REMARK>
 VINA RESULT:    -6.198      2.394      6.632
 INTER + INTRA:         -11.191
 INTER:                 -10.097
 INTRA:                  -1.094
 UNBOUND:                -1.913
  Name = CHEMBL594765
  10 active torsions:
  status: ('A' for Active; 'I' for Inactive)
    1  A    between atoms: C_1  and  O_2
    2  A    between atoms: O_2  and  C_3
    3  A    between atoms: C_5  and  C_6
    4  A    between atoms: C_6  and  C_7
    5  A    between atoms: C_7  and  C_8
    6  A    between atoms: C_9  and  C_10
    7  A    between atoms: C_10  and  C_12
    8  A    between atoms: C_12  and  C_13
    9  A    between atoms: C_13  and  C_14
   10  A    between atoms: C_22  and  O_23
                            x       y       z     vdW  Elec       q    Type
                         _______ _______ _______ _____ _____    ______ ____

>  <TORSDO>
F 9

>  <SCORE>
-6.198

>  <RMSD_LB>
2.394

>  <RMSD_UB>
6.632

$$$$
CHEMBL594765
 OpenBabel10172500543D

 24 25  0  0  0  0  0  0  0  0999 V2000
  137.3010  135.1010  149.1600 C   0  0  0  0  0  2  0  0  0  0  0  0
  136.5620  135.5150  150.4070 C   0  0  0  0  0  3  0  0  0  0  0  0
  136.1700  134.6430  151.3500 C   0  0  0  0  0  3  0  0  0  0  0  0
  135.4350  135.0880  152.5650 C   0  0  0  0  0  0  0  0  0  0  0  0
  135.8300  134.7950  153.6910 O   0  0  0  0  0  0  0  0  0  0  0  0
  134.1620  135.8760  152.3210 C   0  0  0  0  0  2  0  0  0  0  0  0
  133.1010  135.0100  151.6530 C   0  0  0  0  0  2  0  0  0  0  0  0
  133.0120  135.2600  150.1670 C   0  0  0  0  0  0  0  0  0  0  0  0
  132.9230  134.1880  149.2700 C   0  0  0  0  0  3  0  0  0  0  0  0
  132.7940  134.4210  147.8990 C   0  0  0  0  0  3  0  0  0  0  0  0
  132.7650  135.7270  147.4140 C   0  0  0  0  0  3  0  0  0  0  0  0
  132.8790  136.8000  148.2960 C   0  0  0  0  0  3  0  0  0  0  0  0
  133.0080  136.5680  149.6670 C   0  0  0  0  0  3  0  0  0  0  0  0
  136.5410  134.0310  148.3680 C   0  0  0  0  0  2  0  0  0  0  0  0
  136.0530  133.7540  144.5930 C   0  0  0  0  0  0  0  0  0  0  0  0
  136.2530  133.4150  145.9330 C   0  0  0  0  0  3  0  0  0  0  0  0
  136.3530  134.4090  146.9220 C   0  0  0  0  0  0  0  0  0  0  0  0
  136.2730  135.7570  146.5510 C   0  0  0  0  0  3  0  0  0  0  0  0
  136.0770  136.1080  145.2150 C   0  0  0  0  0  3  0  0  0  0  0  0
  135.9660  135.1100  144.2470 C   0  0  0  0  0  0  0  0  0  0  0  0
  136.8990  131.8250  143.4720 C   0  0  0  0  0  1  0  0  0  0  0  0
  135.9260  132.8550  143.5640 O   0  0  0  0  0  0  0  0  0  0  0  0
  135.7670  135.4580  142.9380 O   0  0  0  0  0  0  0  0  0  0  0  0
  135.3180  136.2540  142.7280 H   0  0  0  0  0  0  0  0  0  0  0  0
  1  2  1  0  0  0  0
  2  3  2  0  0  0  0
  3  4  1  0  0  0  0
  4  5  2  0  0  0  0
  6  4  1  0  0  0  0
  7  6  1  0  0  0  0
  8  7  1  0  0  0  0
  9  8  2  0  0  0  0
 10  9  1  0  0  0  0
 11 10  2  0  0  0  0
 11 12  1  0  0  0  0
 12 13  2  0  0  0  0
 13  8  1  0  0  0  0
 14  1  1  0  0  0  0
 15 16  1  0  0  0  0
 16 17  2  0  0  0  0
 17 14  1  0  0  0  0
 18 17  1  0  0  0  0
 19 18  2  0  0  0  0
 20 15  2  0  0  0  0
 20 19  1  0  0  0  0
 21 22  1  0  0  0  0
 22 15  1  0  0  0  0
 23 20  1  0  0  0  0
 24 23  1  0  0  0  0
M  END
>  <MODEL>
8

>  <REMARK>
 VINA RESULT:    -5.972     10.948     12.979
 INTER + INTRA:         -10.852
 INTER:                  -8.430
 INTRA:                  -2.422
 UNBOUND:                -1.913
  Name = CHEMBL594765
  10 active torsions:
  status: ('A' for Active; 'I' for Inactive)
    1  A    between atoms: C_1  and  O_2
    2  A    between atoms: O_2  and  C_3
    3  A    between atoms: C_5  and  C_6
    4  A    between atoms: C_6  and  C_7
    5  A    between atoms: C_7  and  C_8
    6  A    between atoms: C_9  and  C_10
    7  A    between atoms: C_10  and  C_12
    8  A    between atoms: C_12  and  C_13
    9  A    between atoms: C_13  and  C_14
   10  A    between atoms: C_22  and  O_23
                            x       y       z     vdW  Elec       q    Type
                         _______ _______ _______ _____ _____    ______ ____

>  <TORSDO>
F 9

>  <SCORE>
-5.972

>  <RMSD_LB>
10.948

>  <RMSD_UB>
12.979

$$$$
CHEMBL594765
 OpenBabel10172500543D

 24 25  0  0  0  0  0  0  0  0999 V2000
  147.0390  139.6180  147.3410 C   0  0  0  0  0  2  0  0  0  0  0  0
  146.8700  138.1490  147.6290 C   0  0  0  0  0  3  0  0  0  0  0  0
  147.1410  137.6010  148.8240 C   0  0  0  0  0  3  0  0  0  0  0  0
  146.9700  136.1430  149.0700 C   0  0  0  0  0  0  0  0  0  0  0  0
  147.3540  135.3100  148.2520 O   0  0  0  0  0  0  0  0  0  0  0  0
  146.2600  135.7640  150.3550 C   0  0  0  0  0  2  0  0  0  0  0  0
  145.0130  136.6150  150.5640 C   0  0  0  0  0  2  0  0  0  0  0  0
  143.9460  136.3260  149.5370 C   0  0  0  0  0  0  0  0  0  0  0  0
  143.3820  137.3650  148.7850 C   0  0  0  0  0  3  0  0  0  0  0  0
  142.4280  137.0910  147.8020 C   0  0  0  0  0  3  0  0  0  0  0  0
  142.0230  135.7770  147.5720 C   0  0  0  0  0  3  0  0  0  0  0  0
  142.5590  134.7400  148.3320 C   0  0  0  0  0  3  0  0  0  0  0  0
  143.5120  135.0130  149.3150 C   0  0  0  0  0  3  0  0  0  0  0  0
  145.7590  140.4130  147.6270 C   0  0  0  0  0  2  0  0  0  0  0  0
  144.9360  140.8220  151.3310 C   0  0  0  0  0  0  0  0  0  0  0  0
  144.9560  140.3340  150.0220 C   0  0  0  0  0  3  0  0  0  0  0  0
  145.7240  140.9640  149.0280 C   0  0  0  0  0  0  0  0  0  0  0  0
  146.4610  142.1100  149.3530 C   0  0  0  0  0  3  0  0  0  0  0  0
  146.4470  142.6080  150.6560 C   0  0  0  0  0  3  0  0  0  0  0  0
  145.6900  141.9640  151.6350 C   0  0  0  0  0  0  0  0  0  0  0  0
  143.1260  139.4390  152.0380 C   0  0  0  0  0  1  0  0  0  0  0  0
  144.2330  140.2640  152.3680 O   0  0  0  0  0  0  0  0  0  0  0  0
  145.6840  142.4530  152.9140 O   0  0  0  0  0  0  0  0  0  0  0  0
  144.9670  142.2600  153.4860 H   0  0  0  0  0  0  0  0  0  0  0  0
  1 14  1  0  0  0  0
  1  2  1  0  0  0  0
  2  3  2  0  0  0  0
  3  4  1  0  0  0  0
  4  6  1  0  0  0  0
  5  4  2  0  0  0  0
  6  7  1  0  0  0  0
  8  7  1  0  0  0  0
  9  8  2  0  0  0  0
 10  9  1  0  0  0  0
 11 10  2  0  0  0  0
 11 12  1  0  0  0  0
 12 13  2  0  0  0  0
 13  8  1  0  0  0  0
 14 17  1  0  0  0  0
 15 20  1  0  0  0  0
 15 22  1  0  0  0  0
 16 15  2  0  0  0  0
 17 18  2  0  0  0  0
 17 16  1  0  0  0  0
 18 19  1  0  0  0  0
 19 20  2  0  0  0  0
 20 23  1  0  0  0  0
 21 22  1  0  0  0  0
 23 24  1  0  0  0  0
M  END
>  <MODEL>
9

>  <REMARK>
 VINA RESULT:    -5.350      2.956      6.272
 INTER + INTRA:          -9.921
 INTER:                  -8.009
 INTRA:                  -1.913
 UNBOUND:                -1.913
  Name = CHEMBL594765
  10 active torsions:
  status: ('A' for Active; 'I' for Inactive)
    1  A    between atoms: C_1  and  O_2
    2  A    between atoms: O_2  and  C_3
    3  A    between atoms: C_5  and  C_6
    4  A    between atoms: C_6  and  C_7
    5  A    between atoms: C_7  and  C_8
    6  A    between atoms: C_9  and  C_10
    7  A    between atoms: C_10  and  C_12
    8  A    between atoms: C_12  and  C_13
    9  A    between atoms: C_13  and  C_14
   10  A    between atoms: C_22  and  O_23
                            x       y       z     vdW  Elec       q    Type
                         _______ _______ _______ _____ _____    ______ ____

>  <TORSDO>
F 9

>  <SCORE>
-5.350

>  <RMSD_LB>
2.956

>  <RMSD_UB>
6.272

$$$$
