CHEMBL1572466
 OpenBabel10162523583D

 22 22  0  0  0  0  0  0  0  0999 V2000
  143.7700  140.3030  150.6460 C   0  0  0  0  0  2  0  0  0  0  0  0
  146.6700  141.6150  153.6030 C   0  0  0  0  0  0  0  0  0  0  0  0
  146.3960  142.4010  152.4750 C   0  0  0  0  0  3  0  0  0  0  0  0
  145.4480  141.9970  151.5270 C   0  0  0  0  0  3  0  0  0  0  0  0
  144.7430  140.8020  151.6850 C   0  0  0  0  0  0  0  0  0  0  0  0
  145.0420  140.0040  152.7980 C   0  0  0  0  0  3  0  0  0  0  0  0
  145.9830  140.4020  153.7620 C   0  0  0  0  0  0  0  0  0  0  0  0
  148.9810  141.9790  154.0350 C   0  0  0  0  0  1  0  0  0  0  0  0
  147.6400  141.9460  154.5110 O   0  0  0  0  0  0  0  0  0  0  0  0
  146.1570  139.4750  154.7590 O   0  0  0  0  0  0  0  0  0  0  0  0
  145.6640  138.1660  154.5070 C   0  0  0  0  0  1  0  0  0  0  0  0
  142.4870  139.9260  151.2000 N   0  0  0  0  0  0  0  0  0  0  0  0
  141.3780  139.8130  150.3890 C   0  0  0  0  0  0  0  0  0  0  0  0
  141.3850  140.1220  149.1960 O   0  0  0  0  0  0  0  0  0  0  0  0
  142.4050  139.7500  152.1650 H   0  0  0  0  0  0  0  0  0  0  0  0
  140.1070  139.3780  151.0860 C   0  0  0  0  0  2  0  0  0  0  0  0
  140.2600  137.6980  151.7540 S   0  0  1  0  0  0  0  0  0  0  0  0
  141.6500  137.1350  151.2690 O   0  0  0  0  0  0  0  0  0  0  0  0
  140.4680  138.1500  153.5020 C   0  0  0  0  0  2  0  0  0  0  0  0
  139.1830  138.5080  154.1990 C   0  0  0  0  0  0  0  0  0  0  0  0
  138.8060  139.6390  154.4570 O   0  0  0  0  0  0  0  0  0  0  0  0
  138.4520  137.4200  154.5440 O   0  0  0  0  0  1  0  0  0  0  0  0
  1 12  1  0  0  0  0
  1  5  1  0  0  0  0
  2  7  1  0  0  0  0
  2  9  1  0  0  0  0
  3  2  2  0  0  0  0
  4  5  2  0  0  0  0
  4  3  1  0  0  0  0
  5  6  1  0  0  0  0
  6  7  2  0  0  0  0
  7 10  1  0  0  0  0
  8  9  1  0  0  0  0
 11 10  1  0  0  0  0
 12 15  1  0  0  0  0
 13 16  1  0  0  0  0
 13 12  1  0  0  0  0
 14 13  2  0  0  0  0
 16 17  1  0  0  0  0
 17 18  2  6  0  0  0
 17 19  1  0  0  0  0
 19 20  1  0  0  0  0
 20 21  2  0  0  0  0
 20 22  1  0  0  0  0
M  END
>  <MODEL>
1

>  <REMARK>
 VINA RESULT:    -6.071      0.000      0.000
 INTER + INTRA:          -9.555
 INTER:                  -8.748
 INTRA:                  -0.807
 UNBOUND:                -0.645
  Name = CHEMBL1572466
  10 active torsions:
  status: ('A' for Active; 'I' for Inactive)
    1  A    between atoms: C_1  and  O_2
    2  A    between atoms: O_2  and  C_3
    3  A    between atoms: C_6  and  C_7
    4  A    between atoms: C_7  and  N_8
    5  A    between atoms: C_9  and  C_11
    6  A    between atoms: C_11  and  S_12
    7  A    between atoms: S_12  and  C_14
    8  A    between atoms: C_14  and  C_15
    9  A    between atoms: C_19  and  O_20
   10  A    between atoms: O_20  and  C_21
                            x       y       z     vdW  Elec       q    Type
                         _______ _______ _______ _____ _____    ______ ____

>  <TORSDO>
F 8

>  <SCORE>
-6.071

>  <RMSD_LB>
0.000

>  <RMSD_UB>
0.000

$$$$
CHEMBL1572466
 OpenBabel10162523583D

 22 22  0  0  0  0  0  0  0  0999 V2000
  134.9370  135.1570  154.8730 C   0  0  0  0  0  2  0  0  0  0  0  0
  137.4360  137.3250  157.6880 C   0  0  0  0  0  0  0  0  0  0  0  0
  136.6890  136.2150  158.1060 C   0  0  0  0  0  3  0  0  0  0  0  0
  135.8970  135.4970  157.2030 C   0  0  0  0  0  3  0  0  0  0  0  0
  135.8370  135.8640  155.8550 C   0  0  0  0  0  0  0  0  0  0  0  0
  136.5610  136.9930  155.4480 C   0  0  0  0  0  3  0  0  0  0  0  0
  137.3680  137.7160  156.3430 C   0  0  0  0  0  0  0  0  0  0  0  0
  137.7830  138.0420  159.9300 C   0  0  0  0  0  1  0  0  0  0  0  0
  138.1650  138.0900  158.5600 O   0  0  0  0  0  0  0  0  0  0  0  0
  137.9740  138.8020  155.7630 O   0  0  0  0  0  0  0  0  0  0  0  0
  139.1290  138.5450  154.9750 C   0  0  0  0  0  1  0  0  0  0  0  0
  135.5940  134.8430  153.6220 N   0  0  0  0  0  0  0  0  0  0  0  0
  135.2440  135.5000  152.4610 C   0  0  0  0  0  0  0  0  0  0  0  0
  134.3050  136.2940  152.3970 O   0  0  0  0  0  0  0  0  0  0  0  0
  136.2950  134.1530  153.5990 H   0  0  0  0  0  0  0  0  0  0  0  0
  136.0310  135.1020  151.2310 C   0  0  0  0  0  2  0  0  0  0  0  0
  134.9940  135.1360  149.7420 S   0  0  1  0  0  0  0  0  0  0  0  0
  135.9680  135.1780  148.5040 O   0  0  0  0  0  0  0  0  0  0  0  0
  134.3660  133.4330  149.8460 C   0  0  0  0  0  2  0  0  0  0  0  0
  133.5440  133.0100  148.6590 C   0  0  0  0  0  0  0  0  0  0  0  0
  133.9430  132.3360  147.7220 O   0  0  0  0  0  0  0  0  0  0  0  0
  132.2700  133.4670  148.7120 O   0  0  0  0  0  1  0  0  0  0  0  0
  1  5  1  0  0  0  0
  2  3  1  0  0  0  0
  2  9  1  0  0  0  0
  4  3  2  0  0  0  0
  5  4  1  0  0  0  0
  6  5  2  0  0  0  0
  6  7  1  0  0  0  0
  7  2  2  0  0  0  0
  9  8  1  0  0  0  0
 10  7  1  0  0  0  0
 11 10  1  0  0  0  0
 12  1  1  0  0  0  0
 13 12  1  0  0  0  0
 14 13  2  0  0  0  0
 15 12  1  0  0  0  0
 16 13  1  0  0  0  0
 17 18  2  6  0  0  0
 17 19  1  0  0  0  0
 17 16  1  0  0  0  0
 20 22  1  0  0  0  0
 20 19  1  0  0  0  0
 21 20  2  0  0  0  0
M  END
>  <MODEL>
2

>  <REMARK>
 VINA RESULT:    -6.000      6.834      9.724
 INTER + INTRA:          -9.451
 INTER:                  -8.976
 INTRA:                  -0.474
 UNBOUND:                -0.645
  Name = CHEMBL1572466
  10 active torsions:
  status: ('A' for Active; 'I' for Inactive)
    1  A    between atoms: C_1  and  O_2
    2  A    between atoms: O_2  and  C_3
    3  A    between atoms: C_6  and  C_7
    4  A    between atoms: C_7  and  N_8
    5  A    between atoms: C_9  and  C_11
    6  A    between atoms: C_11  and  S_12
    7  A    between atoms: S_12  and  C_14
    8  A    between atoms: C_14  and  C_15
    9  A    between atoms: C_19  and  O_20
   10  A    between atoms: O_20  and  C_21
                            x       y       z     vdW  Elec       q    Type
                         _______ _______ _______ _____ _____    ______ ____

>  <TORSDO>
F 8

>  <SCORE>
-6.000

>  <RMSD_LB>
6.834

>  <RMSD_UB>
9.724

$$$$
CHEMBL1572466
 OpenBabel10162523583D

 22 22  0  0  0  0  0  0  0  0999 V2000
  133.0350  135.3610  151.3990 C   0  0  0  0  0  2  0  0  0  0  0  0
  133.8490  133.4210  147.5980 C   0  0  0  0  0  0  0  0  0  0  0  0
  133.9140  132.6970  148.7970 C   0  0  0  0  0  3  0  0  0  0  0  0
  133.6330  133.3070  150.0240 C   0  0  0  0  0  3  0  0  0  0  0  0
  133.2710  134.6550  150.0870 C   0  0  0  0  0  0  0  0  0  0  0  0
  133.2380  135.3830  148.8900 C   0  0  0  0  0  3  0  0  0  0  0  0
  133.5070  134.7800  147.6500 C   0  0  0  0  0  0  0  0  0  0  0  0
  135.4960  133.1410  145.9050 C   0  0  0  0  0  1  0  0  0  0  0  0
  134.1860  132.8720  146.3890 O   0  0  0  0  0  0  0  0  0  0  0  0
  133.4520  135.6620  146.6000 O   0  0  0  0  0  0  0  0  0  0  0  0
  133.7910  137.0140  146.8820 C   0  0  0  0  0  1  0  0  0  0  0  0
  134.2580  135.6750  152.1060 N   0  0  0  0  0  0  0  0  0  0  0  0
  134.6630  134.9140  153.1820 C   0  0  0  0  0  0  0  0  0  0  0  0
  133.9740  134.0120  153.6620 O   0  0  0  0  0  0  0  0  0  0  0  0
  134.8050  136.4410  151.8180 H   0  0  0  0  0  0  0  0  0  0  0  0
  135.9760  135.3270  153.8100 C   0  0  0  0  0  2  0  0  0  0  0  0
  135.7140  136.2040  155.3770 S   0  0  1  0  0  0  0  0  0  0  0  0
  135.3620  135.1150  156.4600 O   0  0  0  0  0  0  0  0  0  0  0  0
  137.4400  136.6890  155.6740 C   0  0  0  0  0  2  0  0  0  0  0  0
  137.7030  138.1600  155.5020 C   0  0  0  0  0  0  0  0  0  0  0  0
  136.8790  139.0500  155.6420 O   0  0  0  0  0  1  0  0  0  0  0  0
  138.9840  138.4280  155.1500 O   0  0  0  0  0  0  0  0  0  0  0  0
  1 12  1  0  0  0  0
  2  7  2  0  0  0  0
  2  3  1  0  0  0  0
  3  4  2  0  0  0  0
  4  5  1  0  0  0  0
  5  1  1  0  0  0  0
  6  5  2  0  0  0  0
  7  6  1  0  0  0  0
  8  9  1  0  0  0  0
  9  2  1  0  0  0  0
 10 11  1  0  0  0  0
 10  7  1  0  0  0  0
 12 13  1  0  0  0  0
 13 14  2  0  0  0  0
 13 16  1  0  0  0  0
 15 12  1  0  0  0  0
 16 17  1  0  0  0  0
 17 19  1  0  0  0  0
 17 18  2  1  0  0  0
 20 21  1  0  0  0  0
 20 19  1  0  0  0  0
 22 20  2  0  0  0  0
M  END
>  <MODEL>
3

>  <REMARK>
 VINA RESULT:    -5.953      7.541     11.972
 INTER + INTRA:          -9.383
 INTER:                  -8.953
 INTRA:                  -0.430
 UNBOUND:                -0.645
  Name = CHEMBL1572466
  10 active torsions:
  status: ('A' for Active; 'I' for Inactive)
    1  A    between atoms: C_1  and  O_2
    2  A    between atoms: O_2  and  C_3
    3  A    between atoms: C_6  and  C_7
    4  A    between atoms: C_7  and  N_8
    5  A    between atoms: C_9  and  C_11
    6  A    between atoms: C_11  and  S_12
    7  A    between atoms: S_12  and  C_14
    8  A    between atoms: C_14  and  C_15
    9  A    between atoms: C_19  and  O_20
   10  A    between atoms: O_20  and  C_21
                            x       y       z     vdW  Elec       q    Type
                         _______ _______ _______ _____ _____    ______ ____

>  <TORSDO>
F 8

>  <SCORE>
-5.953

>  <RMSD_LB>
7.541

>  <RMSD_UB>
11.972

$$$$
CHEMBL1572466
 OpenBabel10162523583D

 22 22  0  0  0  0  0  0  0  0999 V2000
  143.3680  137.3630  151.6950 C   0  0  0  0  0  2  0  0  0  0  0  0
  140.0350  138.5660  154.2080 C   0  0  0  0  0  0  0  0  0  0  0  0
  139.8120  138.0730  152.9150 C   0  0  0  0  0  3  0  0  0  0  0  0
  140.8760  137.6630  152.1050 C   0  0  0  0  0  3  0  0  0  0  0  0
  142.1930  137.7270  152.5680 C   0  0  0  0  0  0  0  0  0  0  0  0
  142.4150  138.2500  153.8500 C   0  0  0  0  0  3  0  0  0  0  0  0
  141.3540  138.6550  154.6770 C   0  0  0  0  0  0  0  0  0  0  0  0
  138.2680  138.0760  155.7240 C   0  0  0  0  0  1  0  0  0  0  0  0
  139.0220  139.0410  154.9990 O   0  0  0  0  0  0  0  0  0  0  0  0
  141.7740  139.1640  155.8800 O   0  0  0  0  0  0  0  0  0  0  0  0
  142.9670  139.9380  155.8650 C   0  0  0  0  0  1  0  0  0  0  0  0
  144.6390  137.7850  152.2430 N   0  0  0  0  0  0  0  0  0  0  0  0
  145.3780  138.7710  151.6240 C   0  0  0  0  0  0  0  0  0  0  0  0
  145.0640  139.2630  150.5400 O   0  0  0  0  0  0  0  0  0  0  0  0
  144.9800  137.3630  153.0640 H   0  0  0  0  0  0  0  0  0  0  0  0
  146.6700  139.1440  152.3180 C   0  0  0  0  0  2  0  0  0  0  0  0
  146.4690  139.1740  154.1210 S   0  0  1  0  0  0  0  0  0  0  0  0
  146.6460  137.6930  154.6290 O   0  0  0  0  0  0  0  0  0  0  0  0
  148.0130  140.0450  154.5220 C   0  0  0  0  0  2  0  0  0  0  0  0
  148.0000  141.5080  154.1740 C   0  0  0  0  0  0  0  0  0  0  0  0
  147.0170  142.2310  154.1760 O   0  0  0  0  0  1  0  0  0  0  0  0
  149.2240  141.9780  153.8320 O   0  0  0  0  0  0  0  0  0  0  0  0
  1 12  1  0  0  0  0
  1  5  1  0  0  0  0
  2  7  1  0  0  0  0
  2  9  1  0  0  0  0
  3  2  2  0  0  0  0
  4  5  2  0  0  0  0
  4  3  1  0  0  0  0
  5  6  1  0  0  0  0
  6  7  2  0  0  0  0
  7 10  1  0  0  0  0
  9  8  1  0  0  0  0
 11 10  1  0  0  0  0
 12 15  1  0  0  0  0
 13 12  1  0  0  0  0
 13 16  1  0  0  0  0
 14 13  2  0  0  0  0
 16 17  1  0  0  0  0
 17 19  1  0  0  0  0
 17 18  2  1  0  0  0
 20 21  1  0  0  0  0
 20 19  1  0  0  0  0
 22 20  2  0  0  0  0
M  END
>  <MODEL>
4

>  <REMARK>
 VINA RESULT:    -5.904      2.720      6.901
 INTER + INTRA:          -9.310
 INTER:                  -8.440
 INTRA:                  -0.870
 UNBOUND:                -0.645
  Name = CHEMBL1572466
  10 active torsions:
  status: ('A' for Active; 'I' for Inactive)
    1  A    between atoms: C_1  and  O_2
    2  A    between atoms: O_2  and  C_3
    3  A    between atoms: C_6  and  C_7
    4  A    between atoms: C_7  and  N_8
    5  A    between atoms: C_9  and  C_11
    6  A    between atoms: C_11  and  S_12
    7  A    between atoms: S_12  and  C_14
    8  A    between atoms: C_14  and  C_15
    9  A    between atoms: C_19  and  O_20
   10  A    between atoms: O_20  and  C_21
                            x       y       z     vdW  Elec       q    Type
                         _______ _______ _______ _____ _____    ______ ____

>  <TORSDO>
F 8

>  <SCORE>
-5.904

>  <RMSD_LB>
2.720

>  <RMSD_UB>
6.901

$$$$
CHEMBL1572466
 OpenBabel10162523583D

 22 22  0  0  0  0  0  0  0  0999 V2000
  138.6610  137.0880  150.3650 C   0  0  0  0  0  2  0  0  0  0  0  0
  139.6780  138.2850  154.4150 C   0  0  0  0  0  0  0  0  0  0  0  0
  140.6780  138.1300  153.4450 C   0  0  0  0  0  3  0  0  0  0  0  0
  140.3590  137.7660  152.1320 C   0  0  0  0  0  3  0  0  0  0  0  0
  139.0310  137.5530  151.7510 C   0  0  0  0  0  0  0  0  0  0  0  0
  138.0380  137.6780  152.7320 C   0  0  0  0  0  3  0  0  0  0  0  0
  138.3430  138.0540  154.0510 C   0  0  0  0  0  0  0  0  0  0  0  0
  140.4300  137.4960  156.5300 C   0  0  0  0  0  1  0  0  0  0  0  0
  139.9630  138.5720  155.7250 O   0  0  0  0  0  0  0  0  0  0  0  0
  137.2420  138.0940  154.8670 O   0  0  0  0  0  0  0  0  0  0  0  0
  136.8860  136.8830  155.5210 C   0  0  0  0  0  1  0  0  0  0  0  0
  137.2810  136.6660  150.2550 N   0  0  0  0  0  0  0  0  0  0  0  0
  136.9650  135.4250  149.7440 C   0  0  0  0  0  0  0  0  0  0  0  0
  137.8060  134.6640  149.2620 O   0  0  0  0  0  0  0  0  0  0  0  0
  136.5610  137.2710  150.5460 H   0  0  0  0  0  0  0  0  0  0  0  0
  135.4890  135.0930  149.7150 C   0  0  0  0  0  2  0  0  0  0  0  0
  134.6130  135.8460  151.1150 S   0  0  1  0  0  0  0  0  0  0  0  0
  133.0760  135.8100  150.7690 O   0  0  0  0  0  0  0  0  0  0  0  0
  134.9010  134.5190  152.3230 C   0  0  0  0  0  2  0  0  0  0  0  0
  134.2990  134.7810  153.6760 C   0  0  0  0  0  0  0  0  0  0  0  0
  134.0600  133.9360  154.5240 O   0  0  0  0  0  1  0  0  0  0  0  0
  134.0200  136.0910  153.8830 O   0  0  0  0  0  0  0  0  0  0  0  0
  1  5  1  0  0  0  0
  2  9  1  0  0  0  0
  3  2  2  0  0  0  0
  4  3  1  0  0  0  0
  5  4  2  0  0  0  0
  5  6  1  0  0  0  0
  6  7  2  0  0  0  0
  7  2  1  0  0  0  0
  7 10  1  0  0  0  0
  9  8  1  0  0  0  0
 10 11  1  0  0  0  0
 12  1  1  0  0  0  0
 12 15  1  0  0  0  0
 13 12  1  0  0  0  0
 14 13  2  0  0  0  0
 16 13  1  0  0  0  0
 16 17  1  0  0  0  0
 17 18  2  6  0  0  0
 17 19  1  0  0  0  0
 19 20  1  0  0  0  0
 20 22  2  0  0  0  0
 20 21  1  0  0  0  0
M  END
>  <MODEL>
5

>  <REMARK>
 VINA RESULT:    -5.837      5.464      7.306
 INTER + INTRA:          -9.212
 INTER:                  -8.432
 INTRA:                  -0.780
 UNBOUND:                -0.645
  Name = CHEMBL1572466
  10 active torsions:
  status: ('A' for Active; 'I' for Inactive)
    1  A    between atoms: C_1  and  O_2
    2  A    between atoms: O_2  and  C_3
    3  A    between atoms: C_6  and  C_7
    4  A    between atoms: C_7  and  N_8
    5  A    between atoms: C_9  and  C_11
    6  A    between atoms: C_11  and  S_12
    7  A    between atoms: S_12  and  C_14
    8  A    between atoms: C_14  and  C_15
    9  A    between atoms: C_19  and  O_20
   10  A    between atoms: O_20  and  C_21
                            x       y       z     vdW  Elec       q    Type
                         _______ _______ _______ _____ _____    ______ ____

>  <TORSDO>
F 8

>  <SCORE>
-5.837

>  <RMSD_LB>
5.464

>  <RMSD_UB>
7.306

$$$$
CHEMBL1572466
 OpenBabel10162523583D

 22 22  0  0  0  0  0  0  0  0999 V2000
  134.6860  134.3460  154.7810 C   0  0  0  0  0  2  0  0  0  0  0  0
  136.6870  137.1980  157.3760 C   0  0  0  0  0  0  0  0  0  0  0  0
  136.1480  136.0140  157.8990 C   0  0  0  0  0  3  0  0  0  0  0  0
  135.5210  135.0790  157.0690 C   0  0  0  0  0  3  0  0  0  0  0  0
  135.4210  135.2970  155.6920 C   0  0  0  0  0  0  0  0  0  0  0  0
  135.9320  136.4970  155.1780 C   0  0  0  0  0  3  0  0  0  0  0  0
  136.5740  137.4390  155.9990 C   0  0  0  0  0  0  0  0  0  0  0  0
  136.7270  138.2880  159.4910 C   0  0  0  0  0  1  0  0  0  0  0  0
  137.2440  138.1650  158.1710 O   0  0  0  0  0  0  0  0  0  0  0  0
  136.9800  138.5580  155.3170 O   0  0  0  0  0  0  0  0  0  0  0  0
  138.2750  138.5150  154.7320 C   0  0  0  0  0  1  0  0  0  0  0  0
  134.2520  134.9600  153.5450 N   0  0  0  0  0  0  0  0  0  0  0  0
  134.8770  134.6570  152.3530 C   0  0  0  0  0  0  0  0  0  0  0  0
  135.8830  133.9500  152.2850 O   0  0  0  0  0  0  0  0  0  0  0  0
  133.5060  135.6010  153.5540 H   0  0  0  0  0  0  0  0  0  0  0  0
  134.3050  135.3400  151.1300 C   0  0  0  0  0  2  0  0  0  0  0  0
  133.5900  134.1380  149.9740 S   0  0  1  0  0  0  0  0  0  0  0  0
  132.1020  133.8910  150.4290 O   0  0  0  0  0  0  0  0  0  0  0  0
  133.5090  135.2230  148.5170 C   0  0  0  0  0  2  0  0  0  0  0  0
  133.4590  136.6900  148.8470 C   0  0  0  0  0  0  0  0  0  0  0  0
  132.4910  137.2860  149.2910 O   0  0  0  0  0  1  0  0  0  0  0  0
  134.6270  137.3270  148.5880 O   0  0  0  0  0  0  0  0  0  0  0  0
  1  5  1  0  0  0  0
  2  3  1  0  0  0  0
  2  9  1  0  0  0  0
  4  3  2  0  0  0  0
  5  4  1  0  0  0  0
  6  5  2  0  0  0  0
  6  7  1  0  0  0  0
  7  2  2  0  0  0  0
  9  8  1  0  0  0  0
 10  7  1  0  0  0  0
 11 10  1  0  0  0  0
 12 15  1  0  0  0  0
 12  1  1  0  0  0  0
 13 12  1  0  0  0  0
 14 13  2  0  0  0  0
 16 13  1  0  0  0  0
 17 18  2  1  0  0  0
 17 16  1  0  0  0  0
 19 20  1  0  0  0  0
 19 17  1  0  0  0  0
 20 21  1  0  0  0  0
 22 20  2  0  0  0  0
M  END
>  <MODEL>
6

>  <REMARK>
 VINA RESULT:    -5.796      7.474     10.135
 INTER + INTRA:          -9.152
 INTER:                  -8.833
 INTRA:                  -0.319
 UNBOUND:                -0.645
  Name = CHEMBL1572466
  10 active torsions:
  status: ('A' for Active; 'I' for Inactive)
    1  A    between atoms: C_1  and  O_2
    2  A    between atoms: O_2  and  C_3
    3  A    between atoms: C_6  and  C_7
    4  A    between atoms: C_7  and  N_8
    5  A    between atoms: C_9  and  C_11
    6  A    between atoms: C_11  and  S_12
    7  A    between atoms: S_12  and  C_14
    8  A    between atoms: C_14  and  C_15
    9  A    between atoms: C_19  and  O_20
   10  A    between atoms: O_20  and  C_21
                            x       y       z     vdW  Elec       q    Type
                         _______ _______ _______ _____ _____    ______ ____

>  <TORSDO>
F 8

>  <SCORE>
-5.796

>  <RMSD_LB>
7.474

>  <RMSD_UB>
10.135

$$$$
CHEMBL1572466
 OpenBabel10162523583D

 22 22  0  0  0  0  0  0  0  0999 V2000
  140.3940  138.4980  154.8510 C   0  0  0  0  0  2  0  0  0  0  0  0
  143.0140  137.1050  151.6790 C   0  0  0  0  0  0  0  0  0  0  0  0
  141.6450  137.2910  151.4430 C   0  0  0  0  0  3  0  0  0  0  0  0
  140.7960  137.7590  152.4510 C   0  0  0  0  0  3  0  0  0  0  0  0
  141.2940  138.0620  153.7220 C   0  0  0  0  0  0  0  0  0  0  0  0
  142.6570  137.8440  153.9630 C   0  0  0  0  0  3  0  0  0  0  0  0
  143.5220  137.3850  152.9560 C   0  0  0  0  0  0  0  0  0  0  0  0
  144.7570  137.4870  150.1050 C   0  0  0  0  0  1  0  0  0  0  0  0
  143.8580  136.5810  150.7340 O   0  0  0  0  0  0  0  0  0  0  0  0
  144.8110  137.2080  153.3930 O   0  0  0  0  0  0  0  0  0  0  0  0
  145.3500  138.2290  154.2220 C   0  0  0  0  0  1  0  0  0  0  0  0
  139.3810  137.5180  155.1830 N   0  0  0  0  0  0  0  0  0  0  0  0
  138.9900  137.3280  156.4920 C   0  0  0  0  0  0  0  0  0  0  0  0
  139.5390  137.8860  157.4430 O   0  0  0  0  0  0  0  0  0  0  0  0
  138.9680  136.9820  154.4690 H   0  0  0  0  0  0  0  0  0  0  0  0
  137.8990  136.3010  156.6990 C   0  0  0  0  0  2  0  0  0  0  0  0
  136.3010  136.8960  156.0780 S   0  0  1  0  0  0  0  0  0  0  0  0
  136.5900  138.2020  155.2440 O   0  0  0  0  0  0  0  0  0  0  0  0
  136.0010  135.5710  154.8720 C   0  0  0  0  0  2  0  0  0  0  0  0
  134.5620  135.4350  154.4550 C   0  0  0  0  0  0  0  0  0  0  0  0
  133.9810  134.3840  154.2390 O   0  0  0  0  0  0  0  0  0  0  0  0
  133.9390  136.6310  154.3220 O   0  0  0  0  0  1  0  0  0  0  0  0
  1 12  1  0  0  0  0
  2  7  1  0  0  0  0
  3  2  2  0  0  0  0
  3  4  1  0  0  0  0
  4  5  2  0  0  0  0
  5  6  1  0  0  0  0
  5  1  1  0  0  0  0
  7 10  1  0  0  0  0
  7  6  2  0  0  0  0
  8  9  1  0  0  0  0
  9  2  1  0  0  0  0
 10 11  1  0  0  0  0
 12 13  1  0  0  0  0
 13 16  1  0  0  0  0
 13 14  2  0  0  0  0
 15 12  1  0  0  0  0
 17 18  2  6  0  0  0
 17 16  1  0  0  0  0
 19 17  1  0  0  0  0
 20 19  1  0  0  0  0
 21 20  2  0  0  0  0
 22 20  1  0  0  0  0
M  END
>  <MODEL>
7

>  <REMARK>
 VINA RESULT:    -5.746      3.638      5.946
 INTER + INTRA:          -9.079
 INTER:                  -8.433
 INTRA:                  -0.645
 UNBOUND:                -0.645
  Name = CHEMBL1572466
  10 active torsions:
  status: ('A' for Active; 'I' for Inactive)
    1  A    between atoms: C_1  and  O_2
    2  A    between atoms: O_2  and  C_3
    3  A    between atoms: C_6  and  C_7
    4  A    between atoms: C_7  and  N_8
    5  A    between atoms: C_9  and  C_11
    6  A    between atoms: C_11  and  S_12
    7  A    between atoms: S_12  and  C_14
    8  A    between atoms: C_14  and  C_15
    9  A    between atoms: C_19  and  O_20
   10  A    between atoms: O_20  and  C_21
                            x       y       z     vdW  Elec       q    Type
                         _______ _______ _______ _____ _____    ______ ____

>  <TORSDO>
F 8

>  <SCORE>
-5.746

>  <RMSD_LB>
3.638

>  <RMSD_UB>
5.946

$$$$
CHEMBL1572466
 OpenBabel10162523583D

 22 22  0  0  0  0  0  0  0  0999 V2000
  143.3270  139.9460  151.1750 C   0  0  0  0  0  2  0  0  0  0  0  0
  146.6360  141.0750  153.7540 C   0  0  0  0  0  0  0  0  0  0  0  0
  146.3640  141.7990  152.5850 C   0  0  0  0  0  3  0  0  0  0  0  0
  145.2880  141.4570  151.7590 C   0  0  0  0  0  3  0  0  0  0  0  0
  144.4490  140.3870  152.0820 C   0  0  0  0  0  0  0  0  0  0  0  0
  144.7440  139.6450  153.2350 C   0  0  0  0  0  3  0  0  0  0  0  0
  145.8150  139.9850  154.0780 C   0  0  0  0  0  0  0  0  0  0  0  0
  148.8710  141.8790  153.9010 C   0  0  0  0  0  1  0  0  0  0  0  0
  147.7230  141.3400  154.5460 O   0  0  0  0  0  0  0  0  0  0  0  0
  145.9580  139.1250  155.1380 O   0  0  0  0  0  0  0  0  0  0  0  0
  146.8000  137.9970  154.9360 C   0  0  0  0  0  1  0  0  0  0  0  0
  142.1020  139.6510  151.8870 N   0  0  0  0  0  0  0  0  0  0  0  0
  141.6120  138.3640  151.9390 C   0  0  0  0  0  0  0  0  0  0  0  0
  142.1140  137.4300  151.3110 O   0  0  0  0  0  0  0  0  0  0  0  0
  141.6120  140.3770  152.3360 H   0  0  0  0  0  0  0  0  0  0  0  0
  140.3430  138.1850  152.7430 C   0  0  0  0  0  2  0  0  0  0  0  0
  140.6830  138.1850  154.5260 S   0  0  1  0  0  0  0  0  0  0  0  0
  141.1020  139.6540  154.9140 O   0  0  0  0  0  0  0  0  0  0  0  0
  138.9710  137.9690  155.0980 C   0  0  0  0  0  2  0  0  0  0  0  0
  138.8350  137.8490  156.5920 C   0  0  0  0  0  0  0  0  0  0  0  0
  139.7060  137.4670  157.3560 O   0  0  0  0  0  1  0  0  0  0  0  0
  137.6060  138.2040  157.0370 O   0  0  0  0  0  0  0  0  0  0  0  0
  1 12  1  0  0  0  0
  1  5  1  0  0  0  0
  2  7  1  0  0  0  0
  2  9  1  0  0  0  0
  3  2  2  0  0  0  0
  4  5  2  0  0  0  0
  4  3  1  0  0  0  0
  5  6  1  0  0  0  0
  6  7  2  0  0  0  0
  7 10  1  0  0  0  0
  8  9  1  0  0  0  0
 11 10  1  0  0  0  0
 12 13  1  0  0  0  0
 12 15  1  0  0  0  0
 13 16  1  0  0  0  0
 14 13  2  0  0  0  0
 16 17  1  0  0  0  0
 17 18  2  1  0  0  0
 17 19  1  0  0  0  0
 19 20  1  0  0  0  0
 20 22  2  0  0  0  0
 20 21  1  0  0  0  0
M  END
>  <MODEL>
8

>  <REMARK>
 VINA RESULT:    -5.678      1.537      2.039
 INTER + INTRA:          -8.979
 INTER:                  -8.228
 INTRA:                  -0.751
 UNBOUND:                -0.645
  Name = CHEMBL1572466
  10 active torsions:
  status: ('A' for Active; 'I' for Inactive)
    1  A    between atoms: C_1  and  O_2
    2  A    between atoms: O_2  and  C_3
    3  A    between atoms: C_6  and  C_7
    4  A    between atoms: C_7  and  N_8
    5  A    between atoms: C_9  and  C_11
    6  A    between atoms: C_11  and  S_12
    7  A    between atoms: S_12  and  C_14
    8  A    between atoms: C_14  and  C_15
    9  A    between atoms: C_19  and  O_20
   10  A    between atoms: O_20  and  C_21
                            x       y       z     vdW  Elec       q    Type
                         _______ _______ _______ _____ _____    ______ ____

>  <TORSDO>
F 8

>  <SCORE>
-5.678

>  <RMSD_LB>
1.537

>  <RMSD_UB>
2.039

$$$$
CHEMBL1572466
 OpenBabel10162523583D

 22 22  0  0  0  0  0  0  0  0999 V2000
  142.6470  138.4970  154.1870 C   0  0  0  0  0  2  0  0  0  0  0  0
  138.8710  137.6750  152.2030 C   0  0  0  0  0  0  0  0  0  0  0  0
  140.0850  137.4940  151.5280 C   0  0  0  0  0  3  0  0  0  0  0  0
  141.3080  137.7360  152.1640 C   0  0  0  0  0  3  0  0  0  0  0  0
  141.3500  138.1570  153.4960 C   0  0  0  0  0  0  0  0  0  0  0  0
  140.1330  138.3670  154.1580 C   0  0  0  0  0  3  0  0  0  0  0  0
  138.8990  138.1180  153.5340 C   0  0  0  0  0  0  0  0  0  0  0  0
  137.5980  137.8090  150.1970 C   0  0  0  0  0  1  0  0  0  0  0  0
  137.6570  137.5150  151.5880 O   0  0  0  0  0  0  0  0  0  0  0  0
  137.8230  138.4090  154.3340 O   0  0  0  0  0  0  0  0  0  0  0  0
  137.9500  138.0930  155.7150 C   0  0  0  0  0  1  0  0  0  0  0  0
  143.4600  139.4350  153.4440 N   0  0  0  0  0  0  0  0  0  0  0  0
  144.7810  139.6410  153.7820 C   0  0  0  0  0  0  0  0  0  0  0  0
  145.3060  139.1350  154.7750 O   0  0  0  0  0  0  0  0  0  0  0  0
  143.0670  139.9330  152.6920 H   0  0  0  0  0  0  0  0  0  0  0  0
  145.5290  140.6210  152.9050 C   0  0  0  0  0  2  0  0  0  0  0  0
  146.1330  139.8270  151.3890 S   0  0  1  0  0  0  0  0  0  0  0  0
  145.4530  138.4070  151.3110 O   0  0  0  0  0  0  0  0  0  0  0  0
  145.2590  140.8830  150.1970 C   0  0  0  0  0  2  0  0  0  0  0  0
  143.8700  140.4100  149.8620 C   0  0  0  0  0  0  0  0  0  0  0  0
  142.9260  140.3730  150.6350 O   0  0  0  0  0  1  0  0  0  0  0  0
  143.7510  139.9990  148.5760 O   0  0  0  0  0  0  0  0  0  0  0  0
  2  7  1  0  0  0  0
  3  4  1  0  0  0  0
  3  2  2  0  0  0  0
  4  5  2  0  0  0  0
  5  6  1  0  0  0  0
  5  1  1  0  0  0  0
  7  6  2  0  0  0  0
  7 10  1  0  0  0  0
  8  9  1  0  0  0  0
  9  2  1  0  0  0  0
 10 11  1  0  0  0  0
 12 13  1  0  0  0  0
 12  1  1  0  0  0  0
 13 14  2  0  0  0  0
 15 12  1  0  0  0  0
 16 13  1  0  0  0  0
 17 18  2  1  0  0  0
 17 16  1  0  0  0  0
 19 17  1  0  0  0  0
 20 19  1  0  0  0  0
 20 21  1  0  0  0  0
 22 20  2  0  0  0  0
M  END
>  <MODEL>
9

>  <REMARK>
 VINA RESULT:    -5.636      2.443      7.163
 INTER + INTRA:          -8.917
 INTER:                  -7.705
 INTRA:                  -1.212
 UNBOUND:                -0.645
  Name = CHEMBL1572466
  10 active torsions:
  status: ('A' for Active; 'I' for Inactive)
    1  A    between atoms: C_1  and  O_2
    2  A    between atoms: O_2  and  C_3
    3  A    between atoms: C_6  and  C_7
    4  A    between atoms: C_7  and  N_8
    5  A    between atoms: C_9  and  C_11
    6  A    between atoms: C_11  and  S_12
    7  A    between atoms: S_12  and  C_14
    8  A    between atoms: C_14  and  C_15
    9  A    between atoms: C_19  and  O_20
   10  A    between atoms: O_20  and  C_21
                            x       y       z     vdW  Elec       q    Type
                         _______ _______ _______ _____ _____    ______ ____

>  <TORSDO>
F 8

>  <SCORE>
-5.636

>  <RMSD_LB>
2.443

>  <RMSD_UB>
7.163

$$$$
