CHEMBL76305
 OpenBabel10172500093D

 27 28  0  0  0  0  0  0  0  0999 V2000
  134.4190  136.1230  151.8010 N   0  0  0  0  0  0  0  0  0  0  0  0
  134.9360  135.4480  152.8790 C   0  0  0  0  0  0  0  0  0  0  0  0
  134.3470  134.5720  153.4970 O   0  0  0  0  0  0  0  0  0  0  0  0
  134.9610  136.8240  151.3730 H   0  0  0  0  0  0  0  0  0  0  0  0
  136.3000  135.9060  153.2430 C   0  0  0  0  0  3  0  0  0  0  0  0
  136.4940  136.6550  154.3400 C   0  0  0  0  0  3  0  0  0  0  0  0
  137.8070  137.1720  154.7580 C   0  0  0  0  0  0  0  0  0  0  0  0
  138.3410  136.9070  156.0240 C   0  0  0  0  0  3  0  0  0  0  0  0
  139.6030  137.3870  156.3920 C   0  0  0  0  0  3  0  0  0  0  0  0
  140.3640  138.1320  155.4910 C   0  0  0  0  0  0  0  0  0  0  0  0
  139.8490  138.3800  154.2150 C   0  0  0  0  0  3  0  0  0  0  0  0
  138.5840  137.9000  153.8490 C   0  0  0  0  0  3  0  0  0  0  0  0
  141.6330  138.6500  155.7940 N   0  0  0  0  0  0  0  0  0  0  0  0
  142.5360  139.2100  154.9380 C   0  0  0  0  0  3  0  0  0  0  0  0
  143.6270  139.6270  155.3100 O   0  0  0  0  0  0  0  0  0  0  0  0
  141.9040  138.6040  156.7390 H   0  0  0  0  0  0  0  0  0  0  0  0
  133.1040  135.8360  151.2740 C   0  0  0  0  0  2  0  0  0  0  0  0
  133.4790  134.6840  147.6460 C   0  0  0  0  0  0  0  0  0  0  0  0
  133.4540  134.6860  149.0440 C   0  0  0  0  0  3  0  0  0  0  0  0
  133.0700  135.8330  149.7640 C   0  0  0  0  0  0  0  0  0  0  0  0
  132.7130  136.9890  149.0560 C   0  0  0  0  0  3  0  0  0  0  0  0
  132.7400  137.0020  147.6600 C   0  0  0  0  0  3  0  0  0  0  0  0
  133.1220  135.8540  146.9650 C   0  0  0  0  0  0  0  0  0  0  0  0
  135.2040  133.2250  146.8840 C   0  0  0  0  0  1  0  0  0  0  0  0
  133.8390  133.6140  146.8670 O   0  0  0  0  0  0  0  0  0  0  0  0
  133.1570  135.8700  145.5960 O   0  0  0  0  0  0  0  0  0  0  0  0
  132.3860  136.0870  145.1090 H   0  0  0  0  0  0  0  0  0  0  0  0
  1  2  1  0  0  0  0
  2  5  1  0  0  0  0
  2  3  2  0  0  0  0
  4  1  1  0  0  0  0
  5  6  2  0  0  0  0
  6  7  1  0  0  0  0
  7  8  1  0  0  0  0
  8  9  2  0  0  0  0
 10 13  1  0  0  0  0
 10  9  1  0  0  0  0
 11 10  2  0  0  0  0
 12 11  1  0  0  0  0
 12  7  2  0  0  0  0
 13 16  1  0  0  0  0
 14 15  2  0  0  0  0
 14 13  1  0  0  0  0
 17  1  1  0  0  0  0
 18 19  1  0  0  0  0
 19 20  2  0  0  0  0
 20 17  1  0  0  0  0
 21 20  1  0  0  0  0
 22 21  2  0  0  0  0
 23 18  2  0  0  0  0
 23 22  1  0  0  0  0
 25 24  1  0  0  0  0
 25 18  1  0  0  0  0
 26 23  1  0  0  0  0
 27 26  1  0  0  0  0
M  END
>  <MODEL>
1

>  <REMARK>
 VINA RESULT:    -7.194      0.000      0.000
 INTER + INTRA:         -10.603
 INTER:                 -10.098
 INTRA:                  -0.504
 UNBOUND:                -0.674
  Name = CHEMBL76305
  8 active torsions:
  status: ('A' for Active; 'I' for Inactive)
    1  A    between atoms: C_1  and  O_2
    2  A    between atoms: O_2  and  C_3
    3  A    between atoms: C_5  and  C_6
    4  A    between atoms: C_6  and  N_7
    5  A    between atoms: C_8  and  C_10
    6  A    between atoms: C_11  and  C_12
    7  A    between atoms: C_15  and  N_16
    8  A    between atoms: C_23  and  O_24
                            x       y       z     vdW  Elec       q    Type
                         _______ _______ _______ _____ _____    ______ ____

>  <TORSDO>
F 7

>  <SCORE>
-7.194

>  <RMSD_LB>
0.000

>  <RMSD_UB>
0.000

$$$$
CHEMBL76305
 OpenBabel10172500093D

 27 28  0  0  0  0  0  0  0  0999 V2000
  138.4410  136.4990  150.1800 N   0  0  0  0  0  0  0  0  0  0  0  0
  138.9360  137.7260  149.8160 C   0  0  0  0  0  0  0  0  0  0  0  0
  138.4400  138.4490  148.9610 O   0  0  0  0  0  0  0  0  0  0  0  0
  138.9140  135.9790  150.8690 H   0  0  0  0  0  0  0  0  0  0  0  0
  140.1670  138.0930  150.5590 C   0  0  0  0  0  3  0  0  0  0  0  0
  140.4630  137.4900  151.7210 C   0  0  0  0  0  3  0  0  0  0  0  0
  141.6480  137.8110  152.5330 C   0  0  0  0  0  0  0  0  0  0  0  0
  142.9320  137.3850  152.1760 C   0  0  0  0  0  3  0  0  0  0  0  0
  144.0480  137.7250  152.9490 C   0  0  0  0  0  3  0  0  0  0  0  0
  143.9010  138.5120  154.0920 C   0  0  0  0  0  0  0  0  0  0  0  0
  142.6250  138.9630  154.4410 C   0  0  0  0  0  3  0  0  0  0  0  0
  141.5080  138.6210  153.6670 C   0  0  0  0  0  3  0  0  0  0  0  0
  144.9730  138.8840  154.9170 N   0  0  0  0  0  0  0  0  0  0  0  0
  146.2390  138.3760  154.9270 C   0  0  0  0  0  3  0  0  0  0  0  0
  147.1030  138.7730  155.7010 O   0  0  0  0  0  0  0  0  0  0  0  0
  144.7890  139.6000  155.5680 H   0  0  0  0  0  0  0  0  0  0  0  0
  137.2450  135.9450  149.5840 C   0  0  0  0  0  2  0  0  0  0  0  0
  135.2380  135.7520  152.8360 C   0  0  0  0  0  0  0  0  0  0  0  0
  136.1340  136.1770  151.8490 C   0  0  0  0  0  3  0  0  0  0  0  0
  136.2310  135.5070  150.6150 C   0  0  0  0  0  0  0  0  0  0  0  0
  135.4140  134.3920  150.3840 C   0  0  0  0  0  3  0  0  0  0  0  0
  134.5190  133.9540  151.3630 C   0  0  0  0  0  3  0  0  0  0  0  0
  134.4360  134.6330  152.5790 C   0  0  0  0  0  0  0  0  0  0  0  0
  136.1270  136.1830  155.0050 C   0  0  0  0  0  1  0  0  0  0  0  0
  135.0780  136.3450  154.0610 O   0  0  0  0  0  0  0  0  0  0  0  0
  133.5660  134.1970  153.5420 O   0  0  0  0  0  0  0  0  0  0  0  0
  132.7080  133.9060  153.3010 H   0  0  0  0  0  0  0  0  0  0  0  0
  1  4  1  0  0  0  0
  2  1  1  0  0  0  0
  2  5  1  0  0  0  0
  3  2  2  0  0  0  0
  5  6  2  0  0  0  0
  6  7  1  0  0  0  0
  7 12  1  0  0  0  0
  8  7  2  0  0  0  0
  8  9  1  0  0  0  0
  9 10  2  0  0  0  0
 10 11  1  0  0  0  0
 10 13  1  0  0  0  0
 12 11  2  0  0  0  0
 13 14  1  0  0  0  0
 13 16  1  0  0  0  0
 14 15  2  0  0  0  0
 17  1  1  0  0  0  0
 17 20  1  0  0  0  0
 18 25  1  0  0  0  0
 19 18  2  0  0  0  0
 20 19  1  0  0  0  0
 21 20  2  0  0  0  0
 21 22  1  0  0  0  0
 22 23  2  0  0  0  0
 23 18  1  0  0  0  0
 23 26  1  0  0  0  0
 25 24  1  0  0  0  0
 27 26  1  0  0  0  0
M  END
>  <MODEL>
2

>  <REMARK>
 VINA RESULT:    -7.130      3.398      5.282
 INTER + INTRA:         -10.514
 INTER:                  -9.821
 INTRA:                  -0.693
 UNBOUND:                -0.674
  Name = CHEMBL76305
  8 active torsions:
  status: ('A' for Active; 'I' for Inactive)
    1  A    between atoms: C_1  and  O_2
    2  A    between atoms: O_2  and  C_3
    3  A    between atoms: C_5  and  C_6
    4  A    between atoms: C_6  and  N_7
    5  A    between atoms: C_8  and  C_10
    6  A    between atoms: C_11  and  C_12
    7  A    between atoms: C_15  and  N_16
    8  A    between atoms: C_23  and  O_24
                            x       y       z     vdW  Elec       q    Type
                         _______ _______ _______ _____ _____    ______ ____

>  <TORSDO>
F 7

>  <SCORE>
-7.130

>  <RMSD_LB>
3.398

>  <RMSD_UB>
5.282

$$$$
CHEMBL76305
 OpenBabel10172500093D

 27 28  0  0  0  0  0  0  0  0999 V2000
  138.2730  137.6620  151.1310 N   0  0  0  0  0  0  0  0  0  0  0  0
  139.5620  137.3180  150.8120 C   0  0  0  0  0  0  0  0  0  0  0  0
  139.8820  136.6470  149.8400 O   0  0  0  0  0  0  0  0  0  0  0  0
  138.1070  138.1940  151.9420 H   0  0  0  0  0  0  0  0  0  0  0  0
  140.5520  137.8320  151.7910 C   0  0  0  0  0  3  0  0  0  0  0  0
  141.8250  137.4070  151.7550 C   0  0  0  0  0  3  0  0  0  0  0  0
  142.8630  137.8440  152.7030 C   0  0  0  0  0  0  0  0  0  0  0  0
  142.6970  138.9670  153.5210 C   0  0  0  0  0  3  0  0  0  0  0  0
  143.6870  139.3490  154.4340 C   0  0  0  0  0  3  0  0  0  0  0  0
  144.8590  138.6040  154.5560 C   0  0  0  0  0  0  0  0  0  0  0  0
  145.0220  137.4660  153.7610 C   0  0  0  0  0  3  0  0  0  0  0  0
  144.0310  137.0850  152.8460 C   0  0  0  0  0  3  0  0  0  0  0  0
  145.8950  138.9330  155.4450 N   0  0  0  0  0  0  0  0  0  0  0  0
  147.1400  138.3810  155.5200 C   0  0  0  0  0  3  0  0  0  0  0  0
  147.9730  138.7410  156.3460 O   0  0  0  0  0  0  0  0  0  0  0  0
  145.6990  139.6480  156.0910 H   0  0  0  0  0  0  0  0  0  0  0  0
  137.1480  137.2680  150.3110 C   0  0  0  0  0  2  0  0  0  0  0  0
  133.9620  135.3260  151.1530 C   0  0  0  0  0  0  0  0  0  0  0  0
  134.9440  136.0270  150.4450 C   0  0  0  0  0  3  0  0  0  0  0  0
  136.1250  136.4630  151.0760 C   0  0  0  0  0  0  0  0  0  0  0  0
  136.3050  136.1890  152.4390 C   0  0  0  0  0  3  0  0  0  0  0  0
  135.3290  135.4960  153.1580 C   0  0  0  0  0  3  0  0  0  0  0  0
  134.1670  135.0700  152.5140 C   0  0  0  0  0  0  0  0  0  0  0  0
  132.8710  134.0760  149.4410 C   0  0  0  0  0  1  0  0  0  0  0  0
  132.7870  134.8640  150.6190 O   0  0  0  0  0  0  0  0  0  0  0  0
  133.2060  134.3980  153.2220 O   0  0  0  0  0  0  0  0  0  0  0  0
  132.5730  134.8750  153.7210 H   0  0  0  0  0  0  0  0  0  0  0  0
  1  4  1  0  0  0  0
  2  1  1  0  0  0  0
  2  5  1  0  0  0  0
  3  2  2  0  0  0  0
  6  5  2  0  0  0  0
  6  7  1  0  0  0  0
  7 12  2  0  0  0  0
  7  8  1  0  0  0  0
  8  9  2  0  0  0  0
  9 10  1  0  0  0  0
 10 13  1  0  0  0  0
 11 10  2  0  0  0  0
 12 11  1  0  0  0  0
 13 14  1  0  0  0  0
 13 16  1  0  0  0  0
 14 15  2  0  0  0  0
 17 20  1  0  0  0  0
 17  1  1  0  0  0  0
 18 23  1  0  0  0  0
 19 20  1  0  0  0  0
 19 18  2  0  0  0  0
 20 21  2  0  0  0  0
 21 22  1  0  0  0  0
 23 22  2  0  0  0  0
 23 26  1  0  0  0  0
 24 25  1  0  0  0  0
 25 18  1  0  0  0  0
 26 27  1  0  0  0  0
M  END
>  <MODEL>
3

>  <REMARK>
 VINA RESULT:    -7.065      3.095      5.069
 INTER + INTRA:         -10.424
 INTER:                  -9.880
 INTRA:                  -0.544
 UNBOUND:                -0.674
  Name = CHEMBL76305
  8 active torsions:
  status: ('A' for Active; 'I' for Inactive)
    1  A    between atoms: C_1  and  O_2
    2  A    between atoms: O_2  and  C_3
    3  A    between atoms: C_5  and  C_6
    4  A    between atoms: C_6  and  N_7
    5  A    between atoms: C_8  and  C_10
    6  A    between atoms: C_11  and  C_12
    7  A    between atoms: C_15  and  N_16
    8  A    between atoms: C_23  and  O_24
                            x       y       z     vdW  Elec       q    Type
                         _______ _______ _______ _____ _____    ______ ____

>  <TORSDO>
F 7

>  <SCORE>
-7.065

>  <RMSD_LB>
3.095

>  <RMSD_UB>
5.069

$$$$
CHEMBL76305
 OpenBabel10172500093D

 27 28  0  0  0  0  0  0  0  0999 V2000
  136.2260  136.1900  150.6390 N   0  0  0  0  0  0  0  0  0  0  0  0
  137.0740  137.1840  150.2160 C   0  0  0  0  0  0  0  0  0  0  0  0
  136.7500  138.1080  149.4830 O   0  0  0  0  0  0  0  0  0  0  0  0
  136.5780  135.4770  151.2170 H   0  0  0  0  0  0  0  0  0  0  0  0
  138.4570  137.0150  150.7290 C   0  0  0  0  0  3  0  0  0  0  0  0
  138.9160  137.8050  151.7130 C   0  0  0  0  0  3  0  0  0  0  0  0
  140.2800  137.7230  152.2610 C   0  0  0  0  0  0  0  0  0  0  0  0
  141.3770  137.3630  151.4710 C   0  0  0  0  0  3  0  0  0  0  0  0
  142.6700  137.3170  152.0070 C   0  0  0  0  0  3  0  0  0  0  0  0
  142.8900  137.6460  153.3450 C   0  0  0  0  0  0  0  0  0  0  0  0
  141.8030  138.0320  154.1340 C   0  0  0  0  0  3  0  0  0  0  0  0
  140.5090  138.0760  153.5960 C   0  0  0  0  0  3  0  0  0  0  0  0
  144.1570  137.6150  153.9500 N   0  0  0  0  0  0  0  0  0  0  0  0
  145.1520  136.7020  153.7640 C   0  0  0  0  0  3  0  0  0  0  0  0
  146.2260  136.7660  154.3530 O   0  0  0  0  0  0  0  0  0  0  0  0
  144.3490  138.3420  154.5860 H   0  0  0  0  0  0  0  0  0  0  0  0
  134.8310  136.1600  150.2600 C   0  0  0  0  0  2  0  0  0  0  0  0
  134.2110  135.0720  146.6450 C   0  0  0  0  0  0  0  0  0  0  0  0
  134.4990  135.8560  147.7670 C   0  0  0  0  0  3  0  0  0  0  0  0
  134.5750  135.2880  149.0530 C   0  0  0  0  0  0  0  0  0  0  0  0
  134.3530  133.9120  149.2000 C   0  0  0  0  0  3  0  0  0  0  0  0
  134.0580  133.1190  148.0890 C   0  0  0  0  0  3  0  0  0  0  0  0
  133.9880  133.7010  146.8220 C   0  0  0  0  0  0  0  0  0  0  0  0
  133.4460  136.7770  145.1650 C   0  0  0  0  0  1  0  0  0  0  0  0
  134.1170  135.5410  145.3600 O   0  0  0  0  0  0  0  0  0  0  0  0
  133.6900  132.9240  145.7340 O   0  0  0  0  0  0  0  0  0  0  0  0
  132.8020  132.6770  145.5640 H   0  0  0  0  0  0  0  0  0  0  0  0
  1  4  1  0  0  0  0
  2  1  1  0  0  0  0
  2  5  1  0  0  0  0
  3  2  2  0  0  0  0
  5  6  2  0  0  0  0
  6  7  1  0  0  0  0
  7 12  1  0  0  0  0
  8  9  1  0  0  0  0
  8  7  2  0  0  0  0
  9 10  2  0  0  0  0
 10 13  1  0  0  0  0
 10 11  1  0  0  0  0
 12 11  2  0  0  0  0
 13 16  1  0  0  0  0
 14 13  1  0  0  0  0
 14 15  2  0  0  0  0
 17  1  1  0  0  0  0
 18 23  2  0  0  0  0
 18 19  1  0  0  0  0
 19 20  2  0  0  0  0
 20 21  1  0  0  0  0
 20 17  1  0  0  0  0
 22 21  2  0  0  0  0
 23 22  1  0  0  0  0
 24 25  1  0  0  0  0
 25 18  1  0  0  0  0
 26 23  1  0  0  0  0
 27 26  1  0  0  0  0
M  END
>  <MODEL>
4

>  <REMARK>
 VINA RESULT:    -7.019      2.638      3.493
 INTER + INTRA:         -10.361
 INTER:                  -9.799
 INTRA:                  -0.562
 UNBOUND:                -0.674
  Name = CHEMBL76305
  8 active torsions:
  status: ('A' for Active; 'I' for Inactive)
    1  A    between atoms: C_1  and  O_2
    2  A    between atoms: O_2  and  C_3
    3  A    between atoms: C_5  and  C_6
    4  A    between atoms: C_6  and  N_7
    5  A    between atoms: C_8  and  C_10
    6  A    between atoms: C_11  and  C_12
    7  A    between atoms: C_15  and  N_16
    8  A    between atoms: C_23  and  O_24
                            x       y       z     vdW  Elec       q    Type
                         _______ _______ _______ _____ _____    ______ ____

>  <TORSDO>
F 7

>  <SCORE>
-7.019

>  <RMSD_LB>
2.638

>  <RMSD_UB>
3.493

$$$$
CHEMBL76305
 OpenBabel10172500093D

 27 28  0  0  0  0  0  0  0  0999 V2000
  137.2580  135.5880  150.3120 N   0  0  0  0  0  0  0  0  0  0  0  0
  137.2620  136.7980  150.9600 C   0  0  0  0  0  0  0  0  0  0  0  0
  137.3490  137.8840  150.4020 O   0  0  0  0  0  0  0  0  0  0  0  0
  137.1990  134.7620  150.8440 H   0  0  0  0  0  0  0  0  0  0  0  0
  137.1690  136.6600  152.4340 C   0  0  0  0  0  3  0  0  0  0  0  0
  136.2190  135.8870  152.9850 C   0  0  0  0  0  3  0  0  0  0  0  0
  136.0400  135.7170  154.4360 C   0  0  0  0  0  0  0  0  0  0  0  0
  136.9060  136.3030  155.3660 C   0  0  0  0  0  3  0  0  0  0  0  0
  136.7010  136.1490  156.7420 C   0  0  0  0  0  3  0  0  0  0  0  0
  135.6130  135.4150  157.2150 C   0  0  0  0  0  0  0  0  0  0  0  0
  134.7290  134.8480  156.2930 C   0  0  0  0  0  3  0  0  0  0  0  0
  134.9360  135.0010  154.9150 C   0  0  0  0  0  3  0  0  0  0  0  0
  135.3510  135.2140  158.5800 N   0  0  0  0  0  0  0  0  0  0  0  0
  134.1370  135.1360  159.1970 C   0  0  0  0  0  3  0  0  0  0  0  0
  134.0210  134.9640  160.4050 O   0  0  0  0  0  0  0  0  0  0  0  0
  136.1390  135.1180  159.1620 H   0  0  0  0  0  0  0  0  0  0  0  0
  137.3380  135.4870  148.8720 C   0  0  0  0  0  2  0  0  0  0  0  0
  135.2470  133.1080  146.7260 C   0  0  0  0  0  0  0  0  0  0  0  0
  136.3370  133.7440  147.3310 C   0  0  0  0  0  3  0  0  0  0  0  0
  136.1490  134.7730  148.2720 C   0  0  0  0  0  0  0  0  0  0  0  0
  134.8430  135.1630  148.5980 C   0  0  0  0  0  3  0  0  0  0  0  0
  133.7460  134.5410  147.9970 C   0  0  0  0  0  3  0  0  0  0  0  0
  133.9530  133.5210  147.0680 C   0  0  0  0  0  0  0  0  0  0  0  0
  135.5500  132.4720  144.4490 C   0  0  0  0  0  1  0  0  0  0  0  0
  135.3380  132.0990  145.8030 O   0  0  0  0  0  0  0  0  0  0  0  0
  132.8780  132.9180  146.4720 O   0  0  0  0  0  0  0  0  0  0  0  0
  132.0110  133.0960  146.7790 H   0  0  0  0  0  0  0  0  0  0  0  0
  1  4  1  0  0  0  0
  1  2  1  0  0  0  0
  2  5  1  0  0  0  0
  3  2  2  0  0  0  0
  5  6  2  0  0  0  0
  6  7  1  0  0  0  0
  7 12  2  0  0  0  0
  7  8  1  0  0  0  0
  8  9  2  0  0  0  0
  9 10  1  0  0  0  0
 10 13  1  0  0  0  0
 11 10  2  0  0  0  0
 12 11  1  0  0  0  0
 13 16  1  0  0  0  0
 13 14  1  0  0  0  0
 14 15  2  0  0  0  0
 17  1  1  0  0  0  0
 18 23  2  0  0  0  0
 18 19  1  0  0  0  0
 19 20  2  0  0  0  0
 20 21  1  0  0  0  0
 20 17  1  0  0  0  0
 22 21  2  0  0  0  0
 23 22  1  0  0  0  0
 24 25  1  0  0  0  0
 25 18  1  0  0  0  0
 26 27  1  0  0  0  0
 26 23  1  0  0  0  0
M  END
>  <MODEL>
5

>  <REMARK>
 VINA RESULT:    -6.957      3.557      4.896
 INTER + INTRA:         -10.274
 INTER:                  -9.692
 INTRA:                  -0.583
 UNBOUND:                -0.674
  Name = CHEMBL76305
  8 active torsions:
  status: ('A' for Active; 'I' for Inactive)
    1  A    between atoms: C_1  and  O_2
    2  A    between atoms: O_2  and  C_3
    3  A    between atoms: C_5  and  C_6
    4  A    between atoms: C_6  and  N_7
    5  A    between atoms: C_8  and  C_10
    6  A    between atoms: C_11  and  C_12
    7  A    between atoms: C_15  and  N_16
    8  A    between atoms: C_23  and  O_24
                            x       y       z     vdW  Elec       q    Type
                         _______ _______ _______ _____ _____    ______ ____

>  <TORSDO>
F 7

>  <SCORE>
-6.957

>  <RMSD_LB>
3.557

>  <RMSD_UB>
4.896

$$$$
CHEMBL76305
 OpenBabel10172500093D

 27 28  0  0  0  0  0  0  0  0999 V2000
  136.9440  136.5630  150.7700 N   0  0  0  0  0  0  0  0  0  0  0  0
  137.7230  137.5790  150.2750 C   0  0  0  0  0  0  0  0  0  0  0  0
  137.3360  138.4280  149.4830 O   0  0  0  0  0  0  0  0  0  0  0  0
  137.3450  135.9160  151.3930 H   0  0  0  0  0  0  0  0  0  0  0  0
  139.1150  137.5380  150.7870 C   0  0  0  0  0  3  0  0  0  0  0  0
  139.3720  137.8090  152.0770 C   0  0  0  0  0  3  0  0  0  0  0  0
  140.7240  137.8160  152.6600 C   0  0  0  0  0  0  0  0  0  0  0  0
  140.9550  138.1670  153.9940 C   0  0  0  0  0  3  0  0  0  0  0  0
  142.2460  138.1420  154.5350 C   0  0  0  0  0  3  0  0  0  0  0  0
  143.3310  137.7490  153.7510 C   0  0  0  0  0  0  0  0  0  0  0  0
  143.1050  137.3710  152.4250 C   0  0  0  0  0  3  0  0  0  0  0  0
  141.8120  137.3980  151.8840 C   0  0  0  0  0  3  0  0  0  0  0  0
  144.6520  137.7070  154.2250 N   0  0  0  0  0  0  0  0  0  0  0  0
  145.4070  138.7400  154.6950 C   0  0  0  0  0  3  0  0  0  0  0  0
  146.5620  138.5930  155.0810 O   0  0  0  0  0  0  0  0  0  0  0  0
  145.0860  136.8230  154.2170 H   0  0  0  0  0  0  0  0  0  0  0  0
  135.5530  136.4140  150.4050 C   0  0  0  0  0  2  0  0  0  0  0  0
  135.3810  133.4580  147.9840 C   0  0  0  0  0  0  0  0  0  0  0  0
  135.7020  134.6960  148.5500 C   0  0  0  0  0  3  0  0  0  0  0  0
  135.2440  135.0510  149.8330 C   0  0  0  0  0  0  0  0  0  0  0  0
  134.4500  134.1410  150.5440 C   0  0  0  0  0  3  0  0  0  0  0  0
  134.1170  132.9040  149.9880 C   0  0  0  0  0  3  0  0  0  0  0  0
  134.5820  132.5700  148.7150 C   0  0  0  0  0  0  0  0  0  0  0  0
  137.1580  132.7150  146.5790 C   0  0  0  0  0  1  0  0  0  0  0  0
  135.7840  133.0320  146.7450 O   0  0  0  0  0  0  0  0  0  0  0  0
  134.2480  131.3610  148.1660 O   0  0  0  0  0  0  0  0  0  0  0  0
  133.4360  131.2630  147.7080 H   0  0  0  0  0  0  0  0  0  0  0  0
  1  4  1  0  0  0  0
  2  1  1  0  0  0  0
  2  5  1  0  0  0  0
  3  2  2  0  0  0  0
  5  6  2  0  0  0  0
  6  7  1  0  0  0  0
  7  8  1  0  0  0  0
  8  9  2  0  0  0  0
 10 13  1  0  0  0  0
 10  9  1  0  0  0  0
 11 10  2  0  0  0  0
 12 11  1  0  0  0  0
 12  7  2  0  0  0  0
 13 14  1  0  0  0  0
 14 15  2  0  0  0  0
 16 13  1  0  0  0  0
 17  1  1  0  0  0  0
 18 19  2  0  0  0  0
 18 23  1  0  0  0  0
 19 20  1  0  0  0  0
 20 17  1  0  0  0  0
 20 21  2  0  0  0  0
 22 21  1  0  0  0  0
 23 22  2  0  0  0  0
 24 25  1  0  0  0  0
 25 18  1  0  0  0  0
 26 23  1  0  0  0  0
 27 26  1  0  0  0  0
M  END
>  <MODEL>
6

>  <REMARK>
 VINA RESULT:    -6.834      3.000      3.650
 INTER + INTRA:         -10.105
 INTER:                  -9.552
 INTRA:                  -0.554
 UNBOUND:                -0.674
  Name = CHEMBL76305
  8 active torsions:
  status: ('A' for Active; 'I' for Inactive)
    1  A    between atoms: C_1  and  O_2
    2  A    between atoms: O_2  and  C_3
    3  A    between atoms: C_5  and  C_6
    4  A    between atoms: C_6  and  N_7
    5  A    between atoms: C_8  and  C_10
    6  A    between atoms: C_11  and  C_12
    7  A    between atoms: C_15  and  N_16
    8  A    between atoms: C_23  and  O_24
                            x       y       z     vdW  Elec       q    Type
                         _______ _______ _______ _____ _____    ______ ____

>  <TORSDO>
F 7

>  <SCORE>
-6.834

>  <RMSD_LB>
3.000

>  <RMSD_UB>
3.650

$$$$
CHEMBL76305
 OpenBabel10172500093D

 27 28  0  0  0  0  0  0  0  0999 V2000
  134.1870  133.7220  149.0490 N   0  0  0  0  0  0  0  0  0  0  0  0
  135.3480  134.1040  149.6730 C   0  0  0  0  0  0  0  0  0  0  0  0
  136.3680  134.4490  149.0910 O   0  0  0  0  0  0  0  0  0  0  0  0
  133.4190  133.4460  149.5980 H   0  0  0  0  0  0  0  0  0  0  0  0
  135.2540  134.0380  151.1520 C   0  0  0  0  0  3  0  0  0  0  0  0
  135.5540  135.1120  151.9000 C   0  0  0  0  0  3  0  0  0  0  0  0
  135.5130  135.1250  153.3710 C   0  0  0  0  0  0  0  0  0  0  0  0
  136.4650  135.8080  154.1350 C   0  0  0  0  0  3  0  0  0  0  0  0
  136.3920  135.8290  155.5330 C   0  0  0  0  0  3  0  0  0  0  0  0
  135.3510  135.1750  156.1940 C   0  0  0  0  0  0  0  0  0  0  0  0
  134.3810  134.5130  155.4370 C   0  0  0  0  0  3  0  0  0  0  0  0
  134.4570  134.4910  154.0370 C   0  0  0  0  0  3  0  0  0  0  0  0
  135.2190  135.1490  157.5910 N   0  0  0  0  0  0  0  0  0  0  0  0
  136.2090  135.1970  158.5280 C   0  0  0  0  0  3  0  0  0  0  0  0
  135.9810  135.1600  159.7320 O   0  0  0  0  0  0  0  0  0  0  0  0
  134.2990  135.0870  157.9370 H   0  0  0  0  0  0  0  0  0  0  0  0
  134.0560  133.7140  147.6080 C   0  0  0  0  0  2  0  0  0  0  0  0
  133.9870  136.7460  145.2760 C   0  0  0  0  0  0  0  0  0  0  0  0
  134.2330  135.4670  145.7890 C   0  0  0  0  0  3  0  0  0  0  0  0
  133.7330  135.0780  147.0460 C   0  0  0  0  0  0  0  0  0  0  0  0
  132.9810  135.9980  147.7900 C   0  0  0  0  0  3  0  0  0  0  0  0
  132.7340  137.2790  147.2930 C   0  0  0  0  0  3  0  0  0  0  0  0
  133.2370  137.6450  146.0440 C   0  0  0  0  0  0  0  0  0  0  0  0
  135.8310  137.4190  143.9230 C   0  0  0  0  0  1  0  0  0  0  0  0
  134.4340  137.2070  144.0650 O   0  0  0  0  0  0  0  0  0  0  0  0
  133.0030  138.9050  145.5610 O   0  0  0  0  0  0  0  0  0  0  0  0
  133.1630  139.0980  144.6580 H   0  0  0  0  0  0  0  0  0  0  0  0
  1  4  1  0  0  0  0
  1  2  1  0  0  0  0
  2  5  1  0  0  0  0
  3  2  2  0  0  0  0
  5  6  2  0  0  0  0
  6  7  1  0  0  0  0
  7 12  2  0  0  0  0
  7  8  1  0  0  0  0
  8  9  2  0  0  0  0
  9 10  1  0  0  0  0
 10 13  1  0  0  0  0
 11 10  2  0  0  0  0
 12 11  1  0  0  0  0
 13 16  1  0  0  0  0
 13 14  1  0  0  0  0
 14 15  2  0  0  0  0
 17  1  1  0  0  0  0
 18 19  2  0  0  0  0
 18 23  1  0  0  0  0
 19 20  1  0  0  0  0
 20 17  1  0  0  0  0
 20 21  2  0  0  0  0
 22 21  1  0  0  0  0
 23 22  2  0  0  0  0
 24 25  1  0  0  0  0
 25 18  1  0  0  0  0
 26 23  1  0  0  0  0
 27 26  1  0  0  0  0
M  END
>  <MODEL>
7

>  <REMARK>
 VINA RESULT:    -6.728      3.830      4.773
 INTER + INTRA:          -9.959
 INTER:                  -9.385
 INTRA:                  -0.574
 UNBOUND:                -0.674
  Name = CHEMBL76305
  8 active torsions:
  status: ('A' for Active; 'I' for Inactive)
    1  A    between atoms: C_1  and  O_2
    2  A    between atoms: O_2  and  C_3
    3  A    between atoms: C_5  and  C_6
    4  A    between atoms: C_6  and  N_7
    5  A    between atoms: C_8  and  C_10
    6  A    between atoms: C_11  and  C_12
    7  A    between atoms: C_15  and  N_16
    8  A    between atoms: C_23  and  O_24
                            x       y       z     vdW  Elec       q    Type
                         _______ _______ _______ _____ _____    ______ ____

>  <TORSDO>
F 7

>  <SCORE>
-6.728

>  <RMSD_LB>
3.830

>  <RMSD_UB>
4.773

$$$$
CHEMBL76305
 OpenBabel10172500093D

 27 28  0  0  0  0  0  0  0  0999 V2000
  138.4340  134.2160  148.0380 N   0  0  0  0  0  0  0  0  0  0  0  0
  138.8950  135.4860  147.7960 C   0  0  0  0  0  0  0  0  0  0  0  0
  138.7870  136.0720  146.7270 O   0  0  0  0  0  0  0  0  0  0  0  0
  138.5770  133.8180  148.9260 H   0  0  0  0  0  0  0  0  0  0  0  0
  139.5690  136.0860  148.9730 C   0  0  0  0  0  3  0  0  0  0  0  0
  138.8510  136.7030  149.9250 C   0  0  0  0  0  3  0  0  0  0  0  0
  139.4410  137.3470  151.1100 C   0  0  0  0  0  0  0  0  0  0  0  0
  140.8240  137.4240  151.3030 C   0  0  0  0  0  3  0  0  0  0  0  0
  141.3640  138.0640  152.4240 C   0  0  0  0  0  3  0  0  0  0  0  0
  140.5260  138.6550  153.3700 C   0  0  0  0  0  0  0  0  0  0  0  0
  139.1430  138.6060  153.1720 C   0  0  0  0  0  3  0  0  0  0  0  0
  138.6040  137.9630  152.0490 C   0  0  0  0  0  3  0  0  0  0  0  0
  140.9970  139.3070  154.5210 N   0  0  0  0  0  0  0  0  0  0  0  0
  142.2770  139.3630  154.9870 C   0  0  0  0  0  3  0  0  0  0  0  0
  142.5800  139.9590  156.0150 O   0  0  0  0  0  0  0  0  0  0  0  0
  140.3200  139.7820  155.0560 H   0  0  0  0  0  0  0  0  0  0  0  0
  137.7420  133.4450  147.0290 C   0  0  0  0  0  2  0  0  0  0  0  0
  134.2450  134.1310  148.4200 C   0  0  0  0  0  0  0  0  0  0  0  0
  135.6360  134.0440  148.3030 C   0  0  0  0  0  3  0  0  0  0  0  0
  136.2410  133.5860  147.1170 C   0  0  0  0  0  0  0  0  0  0  0  0
  135.4230  133.2100  146.0420 C   0  0  0  0  0  3  0  0  0  0  0  0
  134.0330  133.2860  146.1480 C   0  0  0  0  0  3  0  0  0  0  0  0
  133.4530  133.7440  147.3310 C   0  0  0  0  0  0  0  0  0  0  0  0
  133.3200  133.6110  150.5540 C   0  0  0  0  0  1  0  0  0  0  0  0
  133.5750  134.5650  149.5340 O   0  0  0  0  0  0  0  0  0  0  0  0
  132.0890  133.8090  147.4380 O   0  0  0  0  0  0  0  0  0  0  0  0
  131.6420  134.6100  147.2470 H   0  0  0  0  0  0  0  0  0  0  0  0
  1  4  1  0  0  0  0
  2  1  1  0  0  0  0
  2  5  1  0  0  0  0
  3  2  2  0  0  0  0
  5  6  2  0  0  0  0
  6  7  1  0  0  0  0
  7  8  2  0  0  0  0
  7 12  1  0  0  0  0
  8  9  1  0  0  0  0
  9 10  2  0  0  0  0
 10 13  1  0  0  0  0
 11 10  1  0  0  0  0
 12 11  2  0  0  0  0
 13 14  1  0  0  0  0
 13 16  1  0  0  0  0
 14 15  2  0  0  0  0
 17 20  1  0  0  0  0
 17  1  1  0  0  0  0
 18 25  1  0  0  0  0
 19 18  1  0  0  0  0
 20 19  2  0  0  0  0
 21 22  2  0  0  0  0
 21 20  1  0  0  0  0
 22 23  1  0  0  0  0
 23 26  1  0  0  0  0
 23 18  2  0  0  0  0
 25 24  1  0  0  0  0
 27 26  1  0  0  0  0
M  END
>  <MODEL>
8

>  <REMARK>
 VINA RESULT:    -6.723      2.843      4.267
 INTER + INTRA:          -9.952
 INTER:                  -9.333
 INTRA:                  -0.619
 UNBOUND:                -0.674
  Name = CHEMBL76305
  8 active torsions:
  status: ('A' for Active; 'I' for Inactive)
    1  A    between atoms: C_1  and  O_2
    2  A    between atoms: O_2  and  C_3
    3  A    between atoms: C_5  and  C_6
    4  A    between atoms: C_6  and  N_7
    5  A    between atoms: C_8  and  C_10
    6  A    between atoms: C_11  and  C_12
    7  A    between atoms: C_15  and  N_16
    8  A    between atoms: C_23  and  O_24
                            x       y       z     vdW  Elec       q    Type
                         _______ _______ _______ _____ _____    ______ ____

>  <TORSDO>
F 7

>  <SCORE>
-6.723

>  <RMSD_LB>
2.843

>  <RMSD_UB>
4.267

$$$$
CHEMBL76305
 OpenBabel10172500093D

 27 28  0  0  0  0  0  0  0  0999 V2000
  137.0970  137.5570  148.8420 N   0  0  0  0  0  0  0  0  0  0  0  0
  137.6410  138.7770  149.1550 C   0  0  0  0  0  0  0  0  0  0  0  0
  137.0860  139.8530  148.9730 O   0  0  0  0  0  0  0  0  0  0  0  0
  137.6230  136.7430  149.0110 H   0  0  0  0  0  0  0  0  0  0  0  0
  139.0050  138.6680  149.7310 C   0  0  0  0  0  3  0  0  0  0  0  0
  139.2350  137.8650  150.7820 C   0  0  0  0  0  3  0  0  0  0  0  0
  140.5490  137.7170  151.4290 C   0  0  0  0  0  0  0  0  0  0  0  0
  140.7490  138.0200  152.7800 C   0  0  0  0  0  3  0  0  0  0  0  0
  142.0020  137.8480  153.3820 C   0  0  0  0  0  3  0  0  0  0  0  0
  143.0770  137.3530  152.6430 C   0  0  0  0  0  0  0  0  0  0  0  0
  142.8780  137.0240  151.2990 C   0  0  0  0  0  3  0  0  0  0  0  0
  141.6240  137.1980  150.6980 C   0  0  0  0  0  3  0  0  0  0  0  0
  144.3600  137.1620  153.1790 N   0  0  0  0  0  0  0  0  0  0  0  0
  145.0250  137.9570  154.0650 C   0  0  0  0  0  3  0  0  0  0  0  0
  146.1550  137.6980  154.4660 O   0  0  0  0  0  0  0  0  0  0  0  0
  144.8380  136.3560  152.8780 H   0  0  0  0  0  0  0  0  0  0  0  0
  135.7740  137.4300  148.2720 C   0  0  0  0  0  2  0  0  0  0  0  0
  134.4590  134.9260  150.8480 C   0  0  0  0  0  0  0  0  0  0  0  0
  135.3240  135.6880  150.0550 C   0  0  0  0  0  3  0  0  0  0  0  0
  134.8290  136.6570  149.1610 C   0  0  0  0  0  0  0  0  0  0  0  0
  133.4440  136.8500  149.0710 C   0  0  0  0  0  3  0  0  0  0  0  0
  132.5690  136.0920  149.8520 C   0  0  0  0  0  3  0  0  0  0  0  0
  133.0800  135.1370  150.7330 C   0  0  0  0  0  0  0  0  0  0  0  0
  135.4490  134.4060  152.9530 C   0  0  0  0  0  1  0  0  0  0  0  0
  134.8540  133.9650  151.7420 O   0  0  0  0  0  0  0  0  0  0  0  0
  132.2210  134.3880  151.4930 O   0  0  0  0  0  0  0  0  0  0  0  0
  131.2950  134.5030  151.4060 H   0  0  0  0  0  0  0  0  0  0  0  0
  1  4  1  0  0  0  0
  1  2  1  0  0  0  0
  2  5  1  0  0  0  0
  3  2  2  0  0  0  0
  5  6  2  0  0  0  0
  6  7  1  0  0  0  0
  7  8  1  0  0  0  0
  8  9  2  0  0  0  0
 10 13  1  0  0  0  0
 10  9  1  0  0  0  0
 11 10  2  0  0  0  0
 12 11  1  0  0  0  0
 12  7  2  0  0  0  0
 13 14  1  0  0  0  0
 14 15  2  0  0  0  0
 16 13  1  0  0  0  0
 17  1  1  0  0  0  0
 17 20  1  0  0  0  0
 18 25  1  0  0  0  0
 19 18  2  0  0  0  0
 20 19  1  0  0  0  0
 21 20  2  0  0  0  0
 21 22  1  0  0  0  0
 22 23  2  0  0  0  0
 23 18  1  0  0  0  0
 23 26  1  0  0  0  0
 25 24  1  0  0  0  0
 27 26  1  0  0  0  0
M  END
>  <MODEL>
9

>  <REMARK>
 VINA RESULT:    -6.697      3.197      4.374
 INTER + INTRA:          -9.916
 INTER:                  -9.241
 INTRA:                  -0.674
 UNBOUND:                -0.674
  Name = CHEMBL76305
  8 active torsions:
  status: ('A' for Active; 'I' for Inactive)
    1  A    between atoms: C_1  and  O_2
    2  A    between atoms: O_2  and  C_3
    3  A    between atoms: C_5  and  C_6
    4  A    between atoms: C_6  and  N_7
    5  A    between atoms: C_8  and  C_10
    6  A    between atoms: C_11  and  C_12
    7  A    between atoms: C_15  and  N_16
    8  A    between atoms: C_23  and  O_24
                            x       y       z     vdW  Elec       q    Type
                         _______ _______ _______ _____ _____    ______ ____

>  <TORSDO>
F 7

>  <SCORE>
-6.697

>  <RMSD_LB>
3.197

>  <RMSD_UB>
4.374

$$$$
