CHEMBL206711
 OpenBabel10172500163D

 28 29  0  0  0  0  0  0  0  0999 V2000
  144.3510  139.5460  149.6990 C   0  0  0  0  0  0  0  0  0  0  0  0
  143.5390  140.1220  148.9800 O   0  0  0  0  0  0  0  0  0  0  0  0
  145.6680  139.9330  149.7980 N   0  0  0  0  0  0  0  0  0  0  0  0
  146.2600  139.4730  150.4360 H   0  0  0  0  0  0  0  0  0  0  0  0
  143.9820  138.3790  150.5870 C   0  0  0  0  0  2  0  0  0  0  0  0
  145.2430  137.6090  150.9790 C   0  0  0  0  0  2  0  0  0  0  0  0
  147.5310  137.9870  154.0100 C   0  0  0  0  0  0  0  0  0  0  0  0
  147.0630  137.6760  152.7290 C   0  0  0  0  0  3  0  0  0  0  0  0
  145.7410  137.9700  152.3550 C   0  0  0  0  0  0  0  0  0  0  0  0
  144.8890  138.5950  153.2720 C   0  0  0  0  0  3  0  0  0  0  0  0
  145.3420  138.9070  154.5540 C   0  0  0  0  0  3  0  0  0  0  0  0
  146.6540  138.6000  154.9150 C   0  0  0  0  0  0  0  0  0  0  0  0
  149.7880  137.4110  153.5040 C   0  0  0  0  0  1  0  0  0  0  0  0
  148.7970  137.7310  154.4680 O   0  0  0  0  0  0  0  0  0  0  0  0
  147.0950  138.9000  156.1770 O   0  0  0  0  0  0  0  0  0  0  0  0
  146.8350  139.7010  156.5870 H   0  0  0  0  0  0  0  0  0  0  0  0
  146.2000  141.0090  148.9790 C   0  0  0  0  0  2  0  0  0  0  0  0
  146.3350  142.3250  149.7510 C   0  0  0  0  0  2  0  0  0  0  0  0
  146.8560  142.1240  151.1500 C   0  0  0  0  0  0  0  0  0  0  0  0
  148.1820  141.7080  151.3630 C   0  0  0  0  0  3  0  0  0  0  0  0
  148.6790  141.5420  152.6600 C   0  0  0  0  0  3  0  0  0  0  0  0
  147.8430  141.7860  153.7420 C   0  0  0  0  0  0  0  0  0  0  0  0
  146.5230  142.1780  153.5360 C   0  0  0  0  0  0  0  0  0  0  0  0
  146.0220  142.3480  152.2520 C   0  0  0  0  0  3  0  0  0  0  0  0
  148.2730  141.6560  155.0340 O   0  0  0  0  0  0  0  0  0  0  0  0
  148.5860  140.8280  155.3420 H   0  0  0  0  0  0  0  0  0  0  0  0
  145.7040  142.4110  154.6030 O   0  0  0  0  0  0  0  0  0  0  0  0
  144.7880  142.5600  154.4670 H   0  0  0  0  0  0  0  0  0  0  0  0
  1  3  1  0  0  0  0
  1  5  1  0  0  0  0
  2  1  2  0  0  0  0
  3  4  1  0  0  0  0
  5  6  1  0  0  0  0
  6  9  1  0  0  0  0
  7 14  1  0  0  0  0
  7 12  1  0  0  0  0
  8  7  2  0  0  0  0
  9  8  1  0  0  0  0
  9 10  2  0  0  0  0
 10 11  1  0  0  0  0
 11 12  2  0  0  0  0
 12 15  1  0  0  0  0
 13 14  1  0  0  0  0
 15 16  1  0  0  0  0
 17 18  1  0  0  0  0
 17  3  1  0  0  0  0
 18 19  1  0  0  0  0
 19 20  2  0  0  0  0
 19 24  1  0  0  0  0
 20 21  1  0  0  0  0
 21 22  2  0  0  0  0
 22 25  1  0  0  0  0
 23 22  1  0  0  0  0
 23 27  1  0  0  0  0
 24 23  2  0  0  0  0
 25 26  1  0  0  0  0
 28 27  1  0  0  0  0
M  END
>  <MODEL>
1

>  <REMARK>
 VINA RESULT:    -8.198      0.000      0.000
 INTER + INTRA:         -12.849
 INTER:                 -11.079
 INTRA:                  -1.770
 UNBOUND:                -0.578
  Name = CHEMBL206711
  11 active torsions:
  status: ('A' for Active; 'I' for Inactive)
    1  A    between atoms: C_1  and  O_2
    2  A    between atoms: O_2  and  C_3
    3  A    between atoms: C_5  and  C_6
    4  A    between atoms: C_6  and  C_7
    5  A    between atoms: C_7  and  C_8
    6  A    between atoms: N_10  and  C_11
    7  A    between atoms: C_11  and  C_12
    8  A    between atoms: C_12  and  C_13
    9  A    between atoms: C_16  and  O_17
   10  A    between atoms: C_18  and  O_19
   11  A    between atoms: C_23  and  O_24
                            x       y       z     vdW  Elec       q    Type
                         _______ _______ _______ _____ _____    ______ ____

>  <TORSDO>
F 10

>  <SCORE>
-8.198

>  <RMSD_LB>
0.000

>  <RMSD_UB>
0.000

$$$$
CHEMBL206711
 OpenBabel10172500163D

 28 29  0  0  0  0  0  0  0  0999 V2000
  143.5040  138.8800  149.5400 C   0  0  0  0  0  0  0  0  0  0  0  0
  142.8010  139.5740  148.8110 O   0  0  0  0  0  0  0  0  0  0  0  0
  144.5590  139.3860  150.2640 N   0  0  0  0  0  0  0  0  0  0  0  0
  145.0500  138.7960  150.8800 H   0  0  0  0  0  0  0  0  0  0  0  0
  143.2590  137.4030  149.7570 C   0  0  0  0  0  2  0  0  0  0  0  0
  143.2730  137.0920  151.2530 C   0  0  0  0  0  2  0  0  0  0  0  0
  141.0330  138.7490  153.8610 C   0  0  0  0  0  0  0  0  0  0  0  0
  142.1660  138.2920  153.1810 C   0  0  0  0  0  3  0  0  0  0  0  0
  142.0440  137.5990  151.9650 C   0  0  0  0  0  0  0  0  0  0  0  0
  140.7740  137.3780  151.4230 C   0  0  0  0  0  3  0  0  0  0  0  0
  139.6350  137.8250  152.0940 C   0  0  0  0  0  3  0  0  0  0  0  0
  139.7700  138.5030  153.3050 C   0  0  0  0  0  0  0  0  0  0  0  0
  142.3200  139.7310  155.6120 C   0  0  0  0  0  1  0  0  0  0  0  0
  141.0510  139.4240  155.0540 O   0  0  0  0  0  0  0  0  0  0  0  0
  138.6510  138.9350  153.9660 O   0  0  0  0  0  0  0  0  0  0  0  0
  138.6540  139.7660  154.4000 H   0  0  0  0  0  0  0  0  0  0  0  0
  144.9600  140.7780  150.1380 C   0  0  0  0  0  2  0  0  0  0  0  0
  145.0960  141.4770  151.4940 C   0  0  0  0  0  2  0  0  0  0  0  0
  146.5330  141.7100  151.8820 C   0  0  0  0  0  0  0  0  0  0  0  0
  147.4980  142.0000  150.9020 C   0  0  0  0  0  3  0  0  0  0  0  0
  148.8290  142.2410  151.2580 C   0  0  0  0  0  3  0  0  0  0  0  0
  149.1920  142.1830  152.5970 C   0  0  0  0  0  0  0  0  0  0  0  0
  148.2440  141.8770  153.5710 C   0  0  0  0  0  0  0  0  0  0  0  0
  146.9200  141.6390  153.2260 C   0  0  0  0  0  3  0  0  0  0  0  0
  150.4730  142.4230  153.0110 O   0  0  0  0  0  0  0  0  0  0  0  0
  150.9220  141.7900  153.5360 H   0  0  0  0  0  0  0  0  0  0  0  0
  148.6080  141.8170  154.8850 O   0  0  0  0  0  0  0  0  0  0  0  0
  148.6700  142.6050  155.3900 H   0  0  0  0  0  0  0  0  0  0  0  0
  1  5  1  0  0  0  0
  1  3  1  0  0  0  0
  2  1  2  0  0  0  0
  3  4  1  0  0  0  0
  5  6  1  0  0  0  0
  6  9  1  0  0  0  0
  7 14  1  0  0  0  0
  8  7  2  0  0  0  0
  9  8  1  0  0  0  0
 10  9  2  0  0  0  0
 10 11  1  0  0  0  0
 11 12  2  0  0  0  0
 12  7  1  0  0  0  0
 12 15  1  0  0  0  0
 14 13  1  0  0  0  0
 15 16  1  0  0  0  0
 17  3  1  0  0  0  0
 17 18  1  0  0  0  0
 18 19  1  0  0  0  0
 19 24  1  0  0  0  0
 20 21  1  0  0  0  0
 20 19  2  0  0  0  0
 21 22  2  0  0  0  0
 22 25  1  0  0  0  0
 22 23  1  0  0  0  0
 23 27  1  0  0  0  0
 24 23  2  0  0  0  0
 25 26  1  0  0  0  0
 27 28  1  0  0  0  0
M  END
>  <MODEL>
2

>  <REMARK>
 VINA RESULT:    -7.535      2.926      4.318
 INTER + INTRA:         -11.857
 INTER:                 -11.034
 INTRA:                  -0.823
 UNBOUND:                -0.578
  Name = CHEMBL206711
  11 active torsions:
  status: ('A' for Active; 'I' for Inactive)
    1  A    between atoms: C_1  and  O_2
    2  A    between atoms: O_2  and  C_3
    3  A    between atoms: C_5  and  C_6
    4  A    between atoms: C_6  and  C_7
    5  A    between atoms: C_7  and  C_8
    6  A    between atoms: N_10  and  C_11
    7  A    between atoms: C_11  and  C_12
    8  A    between atoms: C_12  and  C_13
    9  A    between atoms: C_16  and  O_17
   10  A    between atoms: C_18  and  O_19
   11  A    between atoms: C_23  and  O_24
                            x       y       z     vdW  Elec       q    Type
                         _______ _______ _______ _____ _____    ______ ____

>  <TORSDO>
F 10

>  <SCORE>
-7.535

>  <RMSD_LB>
2.926

>  <RMSD_UB>
4.318

$$$$
CHEMBL206711
 OpenBabel10172500163D

 28 29  0  0  0  0  0  0  0  0999 V2000
  139.9560  138.4800  155.1850 C   0  0  0  0  0  0  0  0  0  0  0  0
  139.5530  139.4740  154.5870 O   0  0  0  0  0  0  0  0  0  0  0  0
  141.2820  138.2830  155.4970 N   0  0  0  0  0  0  0  0  0  0  0  0
  141.5400  137.4980  156.0320 H   0  0  0  0  0  0  0  0  0  0  0  0
  139.0350  137.3890  155.6830 C   0  0  0  0  0  2  0  0  0  0  0  0
  137.7160  137.4360  154.9130 C   0  0  0  0  0  2  0  0  0  0  0  0
  134.8480  134.9240  155.0960 C   0  0  0  0  0  0  0  0  0  0  0  0
  135.8210  135.7950  154.5950 C   0  0  0  0  0  3  0  0  0  0  0  0
  136.6860  136.4820  155.4640 C   0  0  0  0  0  0  0  0  0  0  0  0
  136.5800  136.2800  156.8440 C   0  0  0  0  0  3  0  0  0  0  0  0
  135.6110  135.4170  157.3560 C   0  0  0  0  0  3  0  0  0  0  0  0
  134.7520  134.7490  156.4830 C   0  0  0  0  0  0  0  0  0  0  0  0
  134.1970  134.1620  152.9330 C   0  0  0  0  0  1  0  0  0  0  0  0
  133.9570  134.2190  154.3310 O   0  0  0  0  0  0  0  0  0  0  0  0
  133.7970  133.9060  156.9880 O   0  0  0  0  0  0  0  0  0  0  0  0
  133.2140  134.2060  157.6570 H   0  0  0  0  0  0  0  0  0  0  0  0
  142.3070  139.2140  155.0540 C   0  0  0  0  0  2  0  0  0  0  0  0
  143.0460  138.7240  153.8050 C   0  0  0  0  0  2  0  0  0  0  0  0
  144.4630  138.3060  154.0990 C   0  0  0  0  0  0  0  0  0  0  0  0
  144.8920  136.9960  153.8230 C   0  0  0  0  0  3  0  0  0  0  0  0
  146.2120  136.6080  154.0710 C   0  0  0  0  0  3  0  0  0  0  0  0
  147.1000  137.5330  154.6050 C   0  0  0  0  0  0  0  0  0  0  0  0
  146.6760  138.8260  154.9000 C   0  0  0  0  0  0  0  0  0  0  0  0
  145.3670  139.2210  154.6530 C   0  0  0  0  0  3  0  0  0  0  0  0
  148.4070  137.2200  154.8580 O   0  0  0  0  0  0  0  0  0  0  0  0
  149.0840  137.8340  154.6490 H   0  0  0  0  0  0  0  0  0  0  0  0
  147.5510  139.7300  155.4290 O   0  0  0  0  0  0  0  0  0  0  0  0
  147.5720  140.6080  155.1020 H   0  0  0  0  0  0  0  0  0  0  0  0
  1  3  1  0  0  0  0
  1  5  1  0  0  0  0
  2  1  2  0  0  0  0
  3  4  1  0  0  0  0
  6  9  1  0  0  0  0
  6  5  1  0  0  0  0
  7 12  1  0  0  0  0
  8  7  2  0  0  0  0
  8  9  1  0  0  0  0
  9 10  2  0  0  0  0
 10 11  1  0  0  0  0
 12 15  1  0  0  0  0
 12 11  2  0  0  0  0
 13 14  1  0  0  0  0
 14  7  1  0  0  0  0
 15 16  1  0  0  0  0
 17  3  1  0  0  0  0
 18 19  1  0  0  0  0
 18 17  1  0  0  0  0
 19 24  1  0  0  0  0
 20 21  1  0  0  0  0
 20 19  2  0  0  0  0
 21 22  2  0  0  0  0
 22 25  1  0  0  0  0
 22 23  1  0  0  0  0
 23 27  1  0  0  0  0
 24 23  2  0  0  0  0
 26 25  1  0  0  0  0
 28 27  1  0  0  0  0
M  END
>  <MODEL>
3

>  <REMARK>
 VINA RESULT:    -7.416      7.447      9.129
 INTER + INTRA:         -11.679
 INTER:                 -11.210
 INTRA:                  -0.469
 UNBOUND:                -0.578
  Name = CHEMBL206711
  11 active torsions:
  status: ('A' for Active; 'I' for Inactive)
    1  A    between atoms: C_1  and  O_2
    2  A    between atoms: O_2  and  C_3
    3  A    between atoms: C_5  and  C_6
    4  A    between atoms: C_6  and  C_7
    5  A    between atoms: C_7  and  C_8
    6  A    between atoms: N_10  and  C_11
    7  A    between atoms: C_11  and  C_12
    8  A    between atoms: C_12  and  C_13
    9  A    between atoms: C_16  and  O_17
   10  A    between atoms: C_18  and  O_19
   11  A    between atoms: C_23  and  O_24
                            x       y       z     vdW  Elec       q    Type
                         _______ _______ _______ _____ _____    ______ ____

>  <TORSDO>
F 10

>  <SCORE>
-7.416

>  <RMSD_LB>
7.447

>  <RMSD_UB>
9.129

$$$$
CHEMBL206711
 OpenBabel10172500163D

 28 29  0  0  0  0  0  0  0  0999 V2000
  144.1210  139.9920  149.5430 C   0  0  0  0  0  0  0  0  0  0  0  0
  142.9680  140.3590  149.3340 O   0  0  0  0  0  0  0  0  0  0  0  0
  144.4600  138.6740  149.7450 N   0  0  0  0  0  0  0  0  0  0  0  0
  145.4080  138.4290  149.8470 H   0  0  0  0  0  0  0  0  0  0  0  0
  145.2980  140.9410  149.5570 C   0  0  0  0  0  2  0  0  0  0  0  0
  146.5930  140.1540  149.7590 C   0  0  0  0  0  2  0  0  0  0  0  0
  148.2020  139.4700  153.1520 C   0  0  0  0  0  0  0  0  0  0  0  0
  147.6560  139.2810  151.8780 C   0  0  0  0  0  3  0  0  0  0  0  0
  147.2010  140.3740  151.1210 C   0  0  0  0  0  0  0  0  0  0  0  0
  147.3090  141.6660  151.6450 C   0  0  0  0  0  3  0  0  0  0  0  0
  147.8480  141.8680  152.9160 C   0  0  0  0  0  3  0  0  0  0  0  0
  148.2870  140.7730  153.6600 C   0  0  0  0  0  0  0  0  0  0  0  0
  149.5380  137.5100  153.3900 C   0  0  0  0  0  1  0  0  0  0  0  0
  148.6620  138.4680  153.9650 O   0  0  0  0  0  0  0  0  0  0  0  0
  148.8090  140.9710  154.9110 O   0  0  0  0  0  0  0  0  0  0  0  0
  148.9780  141.8410  155.2160 H   0  0  0  0  0  0  0  0  0  0  0  0
  143.4440  137.6360  149.8070 C   0  0  0  0  0  2  0  0  0  0  0  0
  142.6830  137.6350  151.1370 C   0  0  0  0  0  2  0  0  0  0  0  0
  143.5790  137.9220  152.3150 C   0  0  0  0  0  0  0  0  0  0  0  0
  143.4560  139.1280  153.0260 C   0  0  0  0  0  3  0  0  0  0  0  0
  144.2680  139.3890  154.1350 C   0  0  0  0  0  3  0  0  0  0  0  0
  145.2070  138.4430  154.5230 C   0  0  0  0  0  0  0  0  0  0  0  0
  145.3470  137.2560  153.8100 C   0  0  0  0  0  0  0  0  0  0  0  0
  144.5430  136.9860  152.7100 C   0  0  0  0  0  3  0  0  0  0  0  0
  146.0210  138.6330  155.6060 O   0  0  0  0  0  0  0  0  0  0  0  0
  146.7880  138.1060  155.7130 H   0  0  0  0  0  0  0  0  0  0  0  0
  146.2760  136.3320  154.1930 O   0  0  0  0  0  0  0  0  0  0  0  0
  146.3420  136.0810  155.0950 H   0  0  0  0  0  0  0  0  0  0  0  0
  1  5  1  0  0  0  0
  1  3  1  0  0  0  0
  2  1  2  0  0  0  0
  3 17  1  0  0  0  0
  3  4  1  0  0  0  0
  5  6  1  0  0  0  0
  6  9  1  0  0  0  0
  7 12  1  0  0  0  0
  7 14  1  0  0  0  0
  8  7  2  0  0  0  0
  9 10  2  0  0  0  0
  9  8  1  0  0  0  0
 10 11  1  0  0  0  0
 11 12  2  0  0  0  0
 12 15  1  0  0  0  0
 13 14  1  0  0  0  0
 15 16  1  0  0  0  0
 17 18  1  0  0  0  0
 18 19  1  0  0  0  0
 19 24  2  0  0  0  0
 19 20  1  0  0  0  0
 20 21  2  0  0  0  0
 21 22  1  0  0  0  0
 22 25  1  0  0  0  0
 23 27  1  0  0  0  0
 23 22  2  0  0  0  0
 24 23  1  0  0  0  0
 25 26  1  0  0  0  0
 27 28  1  0  0  0  0
M  END
>  <MODEL>
4

>  <REMARK>
 VINA RESULT:    -7.149      1.442      3.905
 INTER + INTRA:         -11.280
 INTER:                  -9.373
 INTRA:                  -1.906
 UNBOUND:                -0.578
  Name = CHEMBL206711
  11 active torsions:
  status: ('A' for Active; 'I' for Inactive)
    1  A    between atoms: C_1  and  O_2
    2  A    between atoms: O_2  and  C_3
    3  A    between atoms: C_5  and  C_6
    4  A    between atoms: C_6  and  C_7
    5  A    between atoms: C_7  and  C_8
    6  A    between atoms: N_10  and  C_11
    7  A    between atoms: C_11  and  C_12
    8  A    between atoms: C_12  and  C_13
    9  A    between atoms: C_16  and  O_17
   10  A    between atoms: C_18  and  O_19
   11  A    between atoms: C_23  and  O_24
                            x       y       z     vdW  Elec       q    Type
                         _______ _______ _______ _____ _____    ______ ____

>  <TORSDO>
F 10

>  <SCORE>
-7.149

>  <RMSD_LB>
1.442

>  <RMSD_UB>
3.905

$$$$
CHEMBL206711
 OpenBabel10172500163D

 28 29  0  0  0  0  0  0  0  0999 V2000
  144.5320  139.2070  149.5700 C   0  0  0  0  0  0  0  0  0  0  0  0
  143.7110  140.1000  149.3790 O   0  0  0  0  0  0  0  0  0  0  0  0
  144.1960  137.9840  150.1030 N   0  0  0  0  0  0  0  0  0  0  0  0
  144.8830  137.2830  150.1770 H   0  0  0  0  0  0  0  0  0  0  0  0
  145.9920  139.3370  149.1980 C   0  0  0  0  0  2  0  0  0  0  0  0
  146.4620  140.7700  149.4480 C   0  0  0  0  0  2  0  0  0  0  0  0
  148.0190  140.3630  152.9090 C   0  0  0  0  0  0  0  0  0  0  0  0
  147.6960  140.1530  151.5640 C   0  0  0  0  0  3  0  0  0  0  0  0
  146.8210  141.0210  150.8910 C   0  0  0  0  0  0  0  0  0  0  0  0
  146.2790  142.1170  151.5720 C   0  0  0  0  0  3  0  0  0  0  0  0
  146.5900  142.3350  152.9130 C   0  0  0  0  0  3  0  0  0  0  0  0
  147.4520  141.4590  153.5730 C   0  0  0  0  0  0  0  0  0  0  0  0
  148.9610  138.2030  153.2730 C   0  0  0  0  0  1  0  0  0  0  0  0
  148.8530  139.5680  153.6500 O   0  0  0  0  0  0  0  0  0  0  0  0
  147.7520  141.6710  154.8930 O   0  0  0  0  0  0  0  0  0  0  0  0
  147.0620  141.7730  155.5190 H   0  0  0  0  0  0  0  0  0  0  0  0
  142.8430  137.7070  150.5570 C   0  0  0  0  0  2  0  0  0  0  0  0
  142.7630  137.4850  152.0700 C   0  0  0  0  0  2  0  0  0  0  0  0
  141.3790  137.7240  152.6170 C   0  0  0  0  0  0  0  0  0  0  0  0
  140.2570  137.6490  151.7740 C   0  0  0  0  0  3  0  0  0  0  0  0
  138.9680  137.8460  152.2800 C   0  0  0  0  0  3  0  0  0  0  0  0
  138.8070  138.1260  153.6310 C   0  0  0  0  0  0  0  0  0  0  0  0
  139.9170  138.2210  154.4670 C   0  0  0  0  0  0  0  0  0  0  0  0
  141.2000  138.0240  153.9730 C   0  0  0  0  0  3  0  0  0  0  0  0
  137.5730  138.3140  154.1900 O   0  0  0  0  0  0  0  0  0  0  0  0
  136.8090  137.9820  153.7610 H   0  0  0  0  0  0  0  0  0  0  0  0
  139.7530  138.5010  155.7920 O   0  0  0  0  0  0  0  0  0  0  0  0
  138.8940  138.6560  156.1350 H   0  0  0  0  0  0  0  0  0  0  0  0
  1  3  1  0  0  0  0
  2  1  2  0  0  0  0
  3  4  1  0  0  0  0
  3 17  1  0  0  0  0
  5  6  1  0  0  0  0
  5  1  1  0  0  0  0
  6  9  1  0  0  0  0
  7 12  1  0  0  0  0
  7 14  1  0  0  0  0
  8  7  2  0  0  0  0
  9  8  1  0  0  0  0
  9 10  2  0  0  0  0
 10 11  1  0  0  0  0
 11 12  2  0  0  0  0
 12 15  1  0  0  0  0
 13 14  1  0  0  0  0
 15 16  1  0  0  0  0
 17 18  1  0  0  0  0
 18 19  1  0  0  0  0
 19 24  1  0  0  0  0
 20 21  1  0  0  0  0
 20 19  2  0  0  0  0
 21 22  2  0  0  0  0
 22 25  1  0  0  0  0
 22 23  1  0  0  0  0
 23 27  1  0  0  0  0
 24 23  2  0  0  0  0
 26 25  1  0  0  0  0
 27 28  1  0  0  0  0
M  END
>  <MODEL>
5

>  <REMARK>
 VINA RESULT:    -7.034      3.410      5.765
 INTER + INTRA:         -11.107
 INTER:                 -10.388
 INTRA:                  -0.718
 UNBOUND:                -0.578
  Name = CHEMBL206711
  11 active torsions:
  status: ('A' for Active; 'I' for Inactive)
    1  A    between atoms: C_1  and  O_2
    2  A    between atoms: O_2  and  C_3
    3  A    between atoms: C_5  and  C_6
    4  A    between atoms: C_6  and  C_7
    5  A    between atoms: C_7  and  C_8
    6  A    between atoms: N_10  and  C_11
    7  A    between atoms: C_11  and  C_12
    8  A    between atoms: C_12  and  C_13
    9  A    between atoms: C_16  and  O_17
   10  A    between atoms: C_18  and  O_19
   11  A    between atoms: C_23  and  O_24
                            x       y       z     vdW  Elec       q    Type
                         _______ _______ _______ _____ _____    ______ ____

>  <TORSDO>
F 10

>  <SCORE>
-7.034

>  <RMSD_LB>
3.410

>  <RMSD_UB>
5.765

$$$$
CHEMBL206711
 OpenBabel10172500163D

 28 29  0  0  0  0  0  0  0  0999 V2000
  138.1010  137.5860  153.2130 C   0  0  0  0  0  0  0  0  0  0  0  0
  139.1920  137.8740  152.7270 O   0  0  0  0  0  0  0  0  0  0  0  0
  137.1250  136.9160  152.5120 N   0  0  0  0  0  0  0  0  0  0  0  0
  136.2930  136.6570  152.9700 H   0  0  0  0  0  0  0  0  0  0  0  0
  137.7320  137.8940  154.6460 C   0  0  0  0  0  2  0  0  0  0  0  0
  138.0270  136.6810  155.5280 C   0  0  0  0  0  2  0  0  0  0  0  0
  135.3510  135.2520  157.8440 C   0  0  0  0  0  0  0  0  0  0  0  0
  136.4990  135.9060  157.3840 C   0  0  0  0  0  3  0  0  0  0  0  0
  136.7740  135.9930  156.0090 C   0  0  0  0  0  0  0  0  0  0  0  0
  135.8810  135.4310  155.0910 C   0  0  0  0  0  3  0  0  0  0  0  0
  134.7350  134.7730  155.5370 C   0  0  0  0  0  3  0  0  0  0  0  0
  134.4790  134.6850  156.9050 C   0  0  0  0  0  0  0  0  0  0  0  0
  135.9830  134.5780  160.0420 C   0  0  0  0  0  1  0  0  0  0  0  0
  135.0040  135.1080  159.1620 O   0  0  0  0  0  0  0  0  0  0  0  0
  133.3560  134.0320  157.3420 O   0  0  0  0  0  0  0  0  0  0  0  0
  133.3940  133.1180  157.5440 H   0  0  0  0  0  0  0  0  0  0  0  0
  137.2990  136.5830  151.1080 C   0  0  0  0  0  2  0  0  0  0  0  0
  136.5770  135.2910  150.7150 C   0  0  0  0  0  2  0  0  0  0  0  0
  135.4580  135.5310  149.7340 C   0  0  0  0  0  0  0  0  0  0  0  0
  135.4770  134.9200  148.4680 C   0  0  0  0  0  3  0  0  0  0  0  0
  134.4290  135.1180  147.5630 C   0  0  0  0  0  3  0  0  0  0  0  0
  133.3680  135.9370  147.9250 C   0  0  0  0  0  0  0  0  0  0  0  0
  133.3540  136.5610  149.1700 C   0  0  0  0  0  0  0  0  0  0  0  0
  134.3880  136.3670  150.0760 C   0  0  0  0  0  3  0  0  0  0  0  0
  132.3080  136.1600  147.0910 O   0  0  0  0  0  0  0  0  0  0  0  0
  131.4690  136.3800  147.4480 H   0  0  0  0  0  0  0  0  0  0  0  0
  132.3100  137.3690  149.5190 O   0  0  0  0  0  0  0  0  0  0  0  0
  132.0200  138.0380  148.9300 H   0  0  0  0  0  0  0  0  0  0  0  0
  1  5  1  0  0  0  0
  2  1  2  0  0  0  0
  3  4  1  0  0  0  0
  3  1  1  0  0  0  0
  5  6  1  0  0  0  0
  6  9  1  0  0  0  0
  7 14  1  0  0  0  0
  8  7  1  0  0  0  0
  9  8  2  0  0  0  0
 10 11  2  0  0  0  0
 10  9  1  0  0  0  0
 11 12  1  0  0  0  0
 12 15  1  0  0  0  0
 12  7  2  0  0  0  0
 14 13  1  0  0  0  0
 15 16  1  0  0  0  0
 17  3  1  0  0  0  0
 18 17  1  0  0  0  0
 19 24  1  0  0  0  0
 19 18  1  0  0  0  0
 20 19  2  0  0  0  0
 21 22  2  0  0  0  0
 21 20  1  0  0  0  0
 22 23  1  0  0  0  0
 23 27  1  0  0  0  0
 23 24  2  0  0  0  0
 25 26  1  0  0  0  0
 25 22  1  0  0  0  0
 28 27  1  0  0  0  0
M  END
>  <MODEL>
6

>  <REMARK>
 VINA RESULT:    -6.708     10.126     12.830
 INTER + INTRA:         -10.619
 INTER:                 -10.133
 INTRA:                  -0.486
 UNBOUND:                -0.578
  Name = CHEMBL206711
  11 active torsions:
  status: ('A' for Active; 'I' for Inactive)
    1  A    between atoms: C_1  and  O_2
    2  A    between atoms: O_2  and  C_3
    3  A    between atoms: C_5  and  C_6
    4  A    between atoms: C_6  and  C_7
    5  A    between atoms: C_7  and  C_8
    6  A    between atoms: N_10  and  C_11
    7  A    between atoms: C_11  and  C_12
    8  A    between atoms: C_12  and  C_13
    9  A    between atoms: C_16  and  O_17
   10  A    between atoms: C_18  and  O_19
   11  A    between atoms: C_23  and  O_24
                            x       y       z     vdW  Elec       q    Type
                         _______ _______ _______ _____ _____    ______ ____

>  <TORSDO>
F 10

>  <SCORE>
-6.708

>  <RMSD_LB>
10.126

>  <RMSD_UB>
12.830

$$$$
CHEMBL206711
 OpenBabel10172500163D

 28 29  0  0  0  0  0  0  0  0999 V2000
  133.0380  134.4810  149.8020 C   0  0  0  0  0  0  0  0  0  0  0  0
  132.6130  133.5540  149.1200 O   0  0  0  0  0  0  0  0  0  0  0  0
  133.1130  135.7750  149.3410 N   0  0  0  0  0  0  0  0  0  0  0  0
  133.4050  136.4900  149.9520 H   0  0  0  0  0  0  0  0  0  0  0  0
  133.4830  134.3110  151.2370 C   0  0  0  0  0  2  0  0  0  0  0  0
  134.9780  133.9930  151.2800 C   0  0  0  0  0  2  0  0  0  0  0  0
  137.2820  137.0100  151.6760 C   0  0  0  0  0  0  0  0  0  0  0  0
  136.5090  135.9950  151.1030 C   0  0  0  0  0  3  0  0  0  0  0  0
  135.7890  135.0970  151.9100 C   0  0  0  0  0  0  0  0  0  0  0  0
  135.8370  135.2320  153.3010 C   0  0  0  0  0  3  0  0  0  0  0  0
  136.6070  136.2370  153.8850 C   0  0  0  0  0  3  0  0  0  0  0  0
  137.3250  137.1150  153.0730 C   0  0  0  0  0  0  0  0  0  0  0  0
  139.1960  137.4560  150.3260 C   0  0  0  0  0  1  0  0  0  0  0  0
  138.0230  137.9240  150.9740 O   0  0  0  0  0  0  0  0  0  0  0  0
  138.0870  138.0980  153.6480 O   0  0  0  0  0  0  0  0  0  0  0  0
  137.9150  138.9980  153.4550 H   0  0  0  0  0  0  0  0  0  0  0  0
  132.7670  136.1070  147.9680 C   0  0  0  0  0  2  0  0  0  0  0  0
  133.9970  136.4030  147.1060 C   0  0  0  0  0  2  0  0  0  0  0  0
  134.8370  135.1770  146.8570 C   0  0  0  0  0  0  0  0  0  0  0  0
  136.0110  134.9550  147.5970 C   0  0  0  0  0  3  0  0  0  0  0  0
  136.7820  133.8060  147.3880 C   0  0  0  0  0  3  0  0  0  0  0  0
  136.3780  132.8860  146.4300 C   0  0  0  0  0  0  0  0  0  0  0  0
  135.2260  133.1110  145.6790 C   0  0  0  0  0  0  0  0  0  0  0  0
  134.4540  134.2460  145.8830 C   0  0  0  0  0  3  0  0  0  0  0  0
  137.0800  131.7370  146.1870 O   0  0  0  0  0  0  0  0  0  0  0  0
  137.0250  131.3230  145.3490 H   0  0  0  0  0  0  0  0  0  0  0  0
  134.8370  132.2050  144.7350 O   0  0  0  0  0  0  0  0  0  0  0  0
  135.4390  131.5500  144.4390 H   0  0  0  0  0  0  0  0  0  0  0  0
  1  5  1  0  0  0  0
  2  1  2  0  0  0  0
  3  1  1  0  0  0  0
  3  4  1  0  0  0  0
  5  6  1  0  0  0  0
  6  9  1  0  0  0  0
  7 12  1  0  0  0  0
  8  7  2  0  0  0  0
  8  9  1  0  0  0  0
  9 10  2  0  0  0  0
 10 11  1  0  0  0  0
 12 15  1  0  0  0  0
 12 11  2  0  0  0  0
 13 14  1  0  0  0  0
 14  7  1  0  0  0  0
 16 15  1  0  0  0  0
 17  3  1  0  0  0  0
 18 17  1  0  0  0  0
 19 18  1  0  0  0  0
 19 20  1  0  0  0  0
 21 20  2  0  0  0  0
 22 21  1  0  0  0  0
 23 24  1  0  0  0  0
 23 22  2  0  0  0  0
 24 19  2  0  0  0  0
 25 22  1  0  0  0  0
 26 25  1  0  0  0  0
 27 23  1  0  0  0  0
 28 27  1  0  0  0  0
M  END
>  <MODEL>
7

>  <REMARK>
 VINA RESULT:    -6.701      9.965     13.113
 INTER + INTRA:         -10.609
 INTER:                  -9.277
 INTRA:                  -1.331
 UNBOUND:                -0.578
  Name = CHEMBL206711
  11 active torsions:
  status: ('A' for Active; 'I' for Inactive)
    1  A    between atoms: C_1  and  O_2
    2  A    between atoms: O_2  and  C_3
    3  A    between atoms: C_5  and  C_6
    4  A    between atoms: C_6  and  C_7
    5  A    between atoms: C_7  and  C_8
    6  A    between atoms: N_10  and  C_11
    7  A    between atoms: C_11  and  C_12
    8  A    between atoms: C_12  and  C_13
    9  A    between atoms: C_16  and  O_17
   10  A    between atoms: C_18  and  O_19
   11  A    between atoms: C_23  and  O_24
                            x       y       z     vdW  Elec       q    Type
                         _______ _______ _______ _____ _____    ______ ____

>  <TORSDO>
F 10

>  <SCORE>
-6.701

>  <RMSD_LB>
9.965

>  <RMSD_UB>
13.113

$$$$
CHEMBL206711
 OpenBabel10172500163D

 28 29  0  0  0  0  0  0  0  0999 V2000
  146.5510  139.6960  147.7090 C   0  0  0  0  0  0  0  0  0  0  0  0
  146.0200  140.2670  146.7600 O   0  0  0  0  0  0  0  0  0  0  0  0
  146.4890  140.1740  148.9980 N   0  0  0  0  0  0  0  0  0  0  0  0
  146.8810  139.6430  149.7290 H   0  0  0  0  0  0  0  0  0  0  0  0
  147.2910  138.3850  147.5710 C   0  0  0  0  0  2  0  0  0  0  0  0
  147.5640  138.0990  146.0940 C   0  0  0  0  0  2  0  0  0  0  0  0
  150.5230  136.4330  144.3510 C   0  0  0  0  0  0  0  0  0  0  0  0
  149.3250  137.1230  144.5690 C   0  0  0  0  0  3  0  0  0  0  0  0
  148.8680  137.3750  145.8730 C   0  0  0  0  0  0  0  0  0  0  0  0
  149.6280  136.9420  146.9650 C   0  0  0  0  0  3  0  0  0  0  0  0
  150.8220  136.2510  146.7610 C   0  0  0  0  0  3  0  0  0  0  0  0
  151.2590  135.9980  145.4610 C   0  0  0  0  0  0  0  0  0  0  0  0
  151.6280  137.1960  142.3810 C   0  0  0  0  0  1  0  0  0  0  0  0
  151.0430  136.1340  143.1190 O   0  0  0  0  0  0  0  0  0  0  0  0
  152.4290  135.3120  145.2620 O   0  0  0  0  0  0  0  0  0  0  0  0
  152.7970  135.2530  144.4020 H   0  0  0  0  0  0  0  0  0  0  0  0
  145.8540  141.4460  149.3000 C   0  0  0  0  0  2  0  0  0  0  0  0
  146.8550  142.5100  149.7600 C   0  0  0  0  0  2  0  0  0  0  0  0
  147.3260  142.2870  151.1740 C   0  0  0  0  0  0  0  0  0  0  0  0
  148.6910  142.0910  151.4480 C   0  0  0  0  0  3  0  0  0  0  0  0
  149.1370  141.9080  152.7610 C   0  0  0  0  0  3  0  0  0  0  0  0
  148.2120  141.9140  153.7970 C   0  0  0  0  0  0  0  0  0  0  0  0
  146.8560  142.0870  153.5290 C   0  0  0  0  0  0  0  0  0  0  0  0
  146.4050  142.2730  152.2290 C   0  0  0  0  0  3  0  0  0  0  0  0
  148.5860  141.7540  155.1030 O   0  0  0  0  0  0  0  0  0  0  0  0
  148.6000  140.8990  155.4850 H   0  0  0  0  0  0  0  0  0  0  0  0
  145.9510  142.0870  154.5510 O   0  0  0  0  0  0  0  0  0  0  0  0
  145.4170  142.8420  154.7030 H   0  0  0  0  0  0  0  0  0  0  0  0
  1  3  1  0  0  0  0
  2  1  2  0  0  0  0
  3 17  1  0  0  0  0
  3  4  1  0  0  0  0
  5  1  1  0  0  0  0
  6  5  1  0  0  0  0
  7  8  2  0  0  0  0
  7 12  1  0  0  0  0
  8  9  1  0  0  0  0
  9  6  1  0  0  0  0
  9 10  2  0  0  0  0
 11 10  1  0  0  0  0
 12 11  2  0  0  0  0
 13 14  1  0  0  0  0
 14  7  1  0  0  0  0
 15 12  1  0  0  0  0
 16 15  1  0  0  0  0
 17 18  1  0  0  0  0
 18 19  1  0  0  0  0
 19 20  2  0  0  0  0
 19 24  1  0  0  0  0
 20 21  1  0  0  0  0
 21 22  2  0  0  0  0
 22 25  1  0  0  0  0
 23 22  1  0  0  0  0
 23 27  1  0  0  0  0
 24 23  2  0  0  0  0
 25 26  1  0  0  0  0
 27 28  1  0  0  0  0
M  END
>  <MODEL>
8

>  <REMARK>
 VINA RESULT:    -6.651      5.098      6.475
 INTER + INTRA:         -10.533
 INTER:                  -9.956
 INTRA:                  -0.578
 UNBOUND:                -0.578
  Name = CHEMBL206711
  11 active torsions:
  status: ('A' for Active; 'I' for Inactive)
    1  A    between atoms: C_1  and  O_2
    2  A    between atoms: O_2  and  C_3
    3  A    between atoms: C_5  and  C_6
    4  A    between atoms: C_6  and  C_7
    5  A    between atoms: C_7  and  C_8
    6  A    between atoms: N_10  and  C_11
    7  A    between atoms: C_11  and  C_12
    8  A    between atoms: C_12  and  C_13
    9  A    between atoms: C_16  and  O_17
   10  A    between atoms: C_18  and  O_19
   11  A    between atoms: C_23  and  O_24
                            x       y       z     vdW  Elec       q    Type
                         _______ _______ _______ _____ _____    ______ ____

>  <TORSDO>
F 10

>  <SCORE>
-6.651

>  <RMSD_LB>
5.098

>  <RMSD_UB>
6.475

$$$$
CHEMBL206711
 OpenBabel10172500163D

 28 29  0  0  0  0  0  0  0  0999 V2000
  142.6170  138.4520  152.4150 C   0  0  0  0  0  0  0  0  0  0  0  0
  142.9900  137.8920  153.4420 O   0  0  0  0  0  0  0  0  0  0  0  0
  143.3850  139.3820  151.7510 N   0  0  0  0  0  0  0  0  0  0  0  0
  143.0620  139.7540  150.8980 H   0  0  0  0  0  0  0  0  0  0  0  0
  141.2960  138.1500  151.7440 C   0  0  0  0  0  2  0  0  0  0  0  0
  140.6890  139.4400  151.1940 C   0  0  0  0  0  2  0  0  0  0  0  0
  137.6290  137.7020  149.7170 C   0  0  0  0  0  0  0  0  0  0  0  0
  138.7940  137.9430  150.4520 C   0  0  0  0  0  3  0  0  0  0  0  0
  139.4200  139.2000  150.4150 C   0  0  0  0  0  0  0  0  0  0  0  0
  138.8610  140.2250  149.6450 C   0  0  0  0  0  3  0  0  0  0  0  0
  137.7020  139.9970  148.9040 C   0  0  0  0  0  3  0  0  0  0  0  0
  137.0960  138.7410  148.9420 C   0  0  0  0  0  0  0  0  0  0  0  0
  137.5380  135.4490  148.9410 C   0  0  0  0  0  1  0  0  0  0  0  0
  136.9550  136.5100  149.6830 O   0  0  0  0  0  0  0  0  0  0  0  0
  135.9610  138.5150  148.2090 O   0  0  0  0  0  0  0  0  0  0  0  0
  135.9040  137.7640  147.6520 H   0  0  0  0  0  0  0  0  0  0  0  0
  144.6640  139.8210  152.2830 C   0  0  0  0  0  2  0  0  0  0  0  0
  145.0530  141.2210  151.7990 C   0  0  0  0  0  2  0  0  0  0  0  0
  146.5050  141.5360  152.0520 C   0  0  0  0  0  0  0  0  0  0  0  0
  147.3790  141.7790  150.9780 C   0  0  0  0  0  3  0  0  0  0  0  0
  148.7220  142.0960  151.2060 C   0  0  0  0  0  3  0  0  0  0  0  0
  149.1890  142.1610  152.5120 C   0  0  0  0  0  0  0  0  0  0  0  0
  148.3320  141.9010  153.5800 C   0  0  0  0  0  0  0  0  0  0  0  0
  146.9970  141.5890  153.3620 C   0  0  0  0  0  3  0  0  0  0  0  0
  150.4870  142.4790  152.8030 O   0  0  0  0  0  0  0  0  0  0  0  0
  151.0820  141.8110  153.0810 H   0  0  0  0  0  0  0  0  0  0  0  0
  148.7980  141.9620  154.8610 O   0  0  0  0  0  0  0  0  0  0  0  0
  148.9770  142.7930  155.2560 H   0  0  0  0  0  0  0  0  0  0  0  0
  1  2  2  0  0  0  0
  3 17  1  0  0  0  0
  3  1  1  0  0  0  0
  4  3  1  0  0  0  0
  5  1  1  0  0  0  0
  6  5  1  0  0  0  0
  7  8  1  0  0  0  0
  9  8  2  0  0  0  0
  9  6  1  0  0  0  0
 10  9  1  0  0  0  0
 11 12  1  0  0  0  0
 11 10  2  0  0  0  0
 12  7  2  0  0  0  0
 13 14  1  0  0  0  0
 14  7  1  0  0  0  0
 15 12  1  0  0  0  0
 16 15  1  0  0  0  0
 18 19  1  0  0  0  0
 18 17  1  0  0  0  0
 19 24  1  0  0  0  0
 20 21  1  0  0  0  0
 20 19  2  0  0  0  0
 21 22  2  0  0  0  0
 22 25  1  0  0  0  0
 22 23  1  0  0  0  0
 23 27  1  0  0  0  0
 24 23  2  0  0  0  0
 25 26  1  0  0  0  0
 27 28  1  0  0  0  0
M  END
>  <MODEL>
9

>  <REMARK>
 VINA RESULT:    -6.579      4.407      6.977
 INTER + INTRA:         -10.426
 INTER:                  -9.954
 INTRA:                  -0.472
 UNBOUND:                -0.578
  Name = CHEMBL206711
  11 active torsions:
  status: ('A' for Active; 'I' for Inactive)
    1  A    between atoms: C_1  and  O_2
    2  A    between atoms: O_2  and  C_3
    3  A    between atoms: C_5  and  C_6
    4  A    between atoms: C_6  and  C_7
    5  A    between atoms: C_7  and  C_8
    6  A    between atoms: N_10  and  C_11
    7  A    between atoms: C_11  and  C_12
    8  A    between atoms: C_12  and  C_13
    9  A    between atoms: C_16  and  O_17
   10  A    between atoms: C_18  and  O_19
   11  A    between atoms: C_23  and  O_24
                            x       y       z     vdW  Elec       q    Type
                         _______ _______ _______ _____ _____    ______ ____

>  <TORSDO>
F 10

>  <SCORE>
-6.579

>  <RMSD_LB>
4.407

>  <RMSD_UB>
6.977

$$$$
