CHEMBL3787400
 OpenBabel10172500323D

 23 24  0  0  0  0  0  0  0  0999 V2000
  142.5940  138.5380  153.7100 C   0  0  0  0  0  3  0  0  0  0  0  0
  143.3220  139.3620  154.4830 C   0  0  0  0  0  3  0  0  0  0  0  0
  138.9310  137.7850  152.9830 C   0  0  0  0  0  0  0  0  0  0  0  0
  140.2980  138.0350  152.7920 C   0  0  0  0  0  3  0  0  0  0  0  0
  141.1480  138.2960  153.8810 C   0  0  0  0  0  0  0  0  0  0  0  0
  140.6110  138.2710  155.1750 C   0  0  0  0  0  3  0  0  0  0  0  0
  139.2500  138.0220  155.3810 C   0  0  0  0  0  3  0  0  0  0  0  0
  138.4210  137.7870  154.2870 C   0  0  0  0  0  0  0  0  0  0  0  0
  138.3210  138.0520  150.6920 C   0  0  0  0  0  1  0  0  0  0  0  0
  138.0320  137.5290  151.9800 O   0  0  0  0  0  0  0  0  0  0  0  0
  137.0850  137.5460  154.4840 O   0  0  0  0  0  0  0  0  0  0  0  0
  136.5030  138.2580  154.6640 H   0  0  0  0  0  0  0  0  0  0  0  0
  144.7800  139.5480  154.2450 C   0  0  0  0  0  0  0  0  0  0  0  0
  145.5390  138.6070  154.0370 O   0  0  0  0  0  0  0  0  0  0  0  0
  145.1630  140.8650  154.2890 N   0  0  0  0  0  0  0  0  0  0  0  0
  144.4750  141.5520  154.4400 H   0  0  0  0  0  0  0  0  0  0  0  0
  146.5410  141.2840  154.1220 C   0  0  0  0  0  2  0  0  0  0  0  0
  146.8030  141.8430  152.7430 C   0  0  0  0  0  0  0  0  0  0  0  0
  148.1020  141.9100  152.2170 C   0  0  0  0  0  3  0  0  0  0  0  0
  148.3190  142.3550  150.9100 C   0  0  0  0  0  3  0  0  0  0  0  0
  147.2410  142.7400  150.1140 C   0  0  0  0  0  3  0  0  0  0  0  0
  145.9470  142.6900  150.6290 C   0  0  0  0  0  3  0  0  0  0  0  0
  145.7300  142.2430  151.9340 C   0  0  0  0  0  3  0  0  0  0  0  0
  1  5  1  0  0  0  0
  1  2  2  0  0  0  0
  3  8  1  0  0  0  0
  4  3  2  0  0  0  0
  4  5  1  0  0  0  0
  5  6  2  0  0  0  0
  6  7  1  0  0  0  0
  8 11  1  0  0  0  0
  8  7  2  0  0  0  0
  9 10  1  0  0  0  0
 10  3  1  0  0  0  0
 11 12  1  0  0  0  0
 13 15  1  0  0  0  0
 13  2  1  0  0  0  0
 14 13  2  0  0  0  0
 15 16  1  0  0  0  0
 17 15  1  0  0  0  0
 18 17  1  0  0  0  0
 19 18  1  0  0  0  0
 20 19  2  0  0  0  0
 21 22  2  0  0  0  0
 21 20  1  0  0  0  0
 22 23  1  0  0  0  0
 23 18  2  0  0  0  0
M  END
>  <MODEL>
1

>  <REMARK>
 VINA RESULT:    -7.810      0.000      0.000
 INTER + INTRA:         -10.761
 INTER:                 -10.283
 INTRA:                  -0.478
 UNBOUND:                -0.440
  Name = CHEMBL3787400
  7 active torsions:
  status: ('A' for Active; 'I' for Inactive)
    1  A    between atoms: C_1  and  O_2
    2  A    between atoms: O_2  and  C_3
    3  A    between atoms: C_5  and  C_6
    4  A    between atoms: C_7  and  C_8
    5  A    between atoms: N_10  and  C_11
    6  A    between atoms: C_11  and  C_12
    7  A    between atoms: C_20  and  O_21
                            x       y       z     vdW  Elec       q    Type
                         _______ _______ _______ _____ _____    ______ ____

>  <TORSDO>
F 6

>  <SCORE>
-7.810

>  <RMSD_LB>
0.000

>  <RMSD_UB>
0.000

$$$$
CHEMBL3787400
 OpenBabel10172500323D

 23 24  0  0  0  0  0  0  0  0999 V2000
  142.4800  138.7220  152.7360 C   0  0  0  0  0  3  0  0  0  0  0  0
  143.2260  139.1010  153.7860 C   0  0  0  0  0  3  0  0  0  0  0  0
  138.9050  138.3120  153.9900 C   0  0  0  0  0  0  0  0  0  0  0  0
  140.2670  138.6450  153.9470 C   0  0  0  0  0  3  0  0  0  0  0  0
  141.0510  138.3600  152.8160 C   0  0  0  0  0  0  0  0  0  0  0  0
  140.4380  137.7620  151.7070 C   0  0  0  0  0  3  0  0  0  0  0  0
  139.0810  137.4240  151.7340 C   0  0  0  0  0  3  0  0  0  0  0  0
  138.3270  137.6960  152.8740 C   0  0  0  0  0  0  0  0  0  0  0  0
  138.4280  137.9770  156.3030 C   0  0  0  0  0  1  0  0  0  0  0  0
  138.0720  138.5480  155.0520 O   0  0  0  0  0  0  0  0  0  0  0  0
  136.9970  137.3650  152.9060 O   0  0  0  0  0  0  0  0  0  0  0  0
  136.3860  137.9220  153.3460 H   0  0  0  0  0  0  0  0  0  0  0  0
  144.6650  139.4480  153.6200 C   0  0  0  0  0  0  0  0  0  0  0  0
  145.4830  138.6590  153.1590 O   0  0  0  0  0  0  0  0  0  0  0  0
  144.9580  140.7220  154.0360 N   0  0  0  0  0  0  0  0  0  0  0  0
  144.2270  141.2900  154.3700 H   0  0  0  0  0  0  0  0  0  0  0  0
  146.3020  141.2650  154.0020 C   0  0  0  0  0  2  0  0  0  0  0  0
  146.6450  141.8520  152.6540 C   0  0  0  0  0  0  0  0  0  0  0  0
  147.9710  141.9050  152.1970 C   0  0  0  0  0  3  0  0  0  0  0  0
  148.2640  142.3770  150.9140 C   0  0  0  0  0  3  0  0  0  0  0  0
  147.2360  142.8030  150.0740 C   0  0  0  0  0  3  0  0  0  0  0  0
  145.9170  142.7660  150.5200 C   0  0  0  0  0  3  0  0  0  0  0  0
  145.6240  142.2930  151.8000 C   0  0  0  0  0  3  0  0  0  0  0  0
  1  5  1  0  0  0  0
  1  2  2  0  0  0  0
  3 10  1  0  0  0  0
  4  3  1  0  0  0  0
  5  4  2  0  0  0  0
  6  7  2  0  0  0  0
  6  5  1  0  0  0  0
  7  8  1  0  0  0  0
  8 11  1  0  0  0  0
  8  3  2  0  0  0  0
 10  9  1  0  0  0  0
 11 12  1  0  0  0  0
 13  2  1  0  0  0  0
 13 15  1  0  0  0  0
 14 13  2  0  0  0  0
 15 16  1  0  0  0  0
 17 15  1  0  0  0  0
 18 17  1  0  0  0  0
 19 18  1  0  0  0  0
 20 19  2  0  0  0  0
 21 22  2  0  0  0  0
 21 20  1  0  0  0  0
 22 23  1  0  0  0  0
 23 18  2  0  0  0  0
M  END
>  <MODEL>
2

>  <REMARK>
 VINA RESULT:    -7.622      0.844      1.948
 INTER + INTRA:         -10.513
 INTER:                 -10.066
 INTRA:                  -0.446
 UNBOUND:                -0.440
  Name = CHEMBL3787400
  7 active torsions:
  status: ('A' for Active; 'I' for Inactive)
    1  A    between atoms: C_1  and  O_2
    2  A    between atoms: O_2  and  C_3
    3  A    between atoms: C_5  and  C_6
    4  A    between atoms: C_7  and  C_8
    5  A    between atoms: N_10  and  C_11
    6  A    between atoms: C_11  and  C_12
    7  A    between atoms: C_20  and  O_21
                            x       y       z     vdW  Elec       q    Type
                         _______ _______ _______ _____ _____    ______ ____

>  <TORSDO>
F 6

>  <SCORE>
-7.622

>  <RMSD_LB>
0.844

>  <RMSD_UB>
1.948

$$$$
CHEMBL3787400
 OpenBabel10172500323D

 23 24  0  0  0  0  0  0  0  0999 V2000
  137.8100  137.2510  154.9320 C   0  0  0  0  0  3  0  0  0  0  0  0
  138.8600  137.6640  155.6610 C   0  0  0  0  0  3  0  0  0  0  0  0
  134.6600  135.1180  155.1510 C   0  0  0  0  0  0  0  0  0  0  0  0
  135.6910  135.9130  154.6290 C   0  0  0  0  0  3  0  0  0  0  0  0
  136.7000  136.4320  155.4590 C   0  0  0  0  0  0  0  0  0  0  0  0
  136.6790  136.1140  156.8230 C   0  0  0  0  0  3  0  0  0  0  0  0
  135.6580  135.3220  157.3580 C   0  0  0  0  0  3  0  0  0  0  0  0
  134.6560  134.8350  156.5220 C   0  0  0  0  0  0  0  0  0  0  0  0
  133.8780  134.3310  153.0400 C   0  0  0  0  0  1  0  0  0  0  0  0
  133.6360  134.5780  154.4170 O   0  0  0  0  0  0  0  0  0  0  0  0
  133.6510  134.0610  157.0430 O   0  0  0  0  0  0  0  0  0  0  0  0
  132.8250  134.4480  157.2580 H   0  0  0  0  0  0  0  0  0  0  0  0
  139.9410  138.4880  155.0500 C   0  0  0  0  0  0  0  0  0  0  0  0
  139.7750  139.6600  154.7310 O   0  0  0  0  0  0  0  0  0  0  0  0
  141.1140  137.7930  154.8910 N   0  0  0  0  0  0  0  0  0  0  0  0
  141.1560  136.8600  155.2010 H   0  0  0  0  0  0  0  0  0  0  0  0
  142.2920  138.3800  154.2840 C   0  0  0  0  0  2  0  0  0  0  0  0
  142.5510  137.8340  152.8990 C   0  0  0  0  0  0  0  0  0  0  0  0
  143.8490  137.5130  152.4720 C   0  0  0  0  0  3  0  0  0  0  0  0
  144.0630  136.9340  151.2180 C   0  0  0  0  0  3  0  0  0  0  0  0
  142.9830  136.6700  150.3760 C   0  0  0  0  0  3  0  0  0  0  0  0
  141.6910  136.9940  150.7840 C   0  0  0  0  0  3  0  0  0  0  0  0
  141.4770  137.5710  152.0370 C   0  0  0  0  0  3  0  0  0  0  0  0
  1  5  1  0  0  0  0
  1  2  2  0  0  0  0
  3  8  1  0  0  0  0
  4  3  2  0  0  0  0
  4  5  1  0  0  0  0
  5  6  2  0  0  0  0
  6  7  1  0  0  0  0
  8 11  1  0  0  0  0
  8  7  2  0  0  0  0
  9 10  1  0  0  0  0
 10  3  1  0  0  0  0
 11 12  1  0  0  0  0
 13  2  1  0  0  0  0
 14 13  2  0  0  0  0
 15 13  1  0  0  0  0
 15 16  1  0  0  0  0
 17 15  1  0  0  0  0
 18 17  1  0  0  0  0
 19 18  1  0  0  0  0
 20 19  2  0  0  0  0
 21 22  2  0  0  0  0
 21 20  1  0  0  0  0
 22 23  1  0  0  0  0
 23 18  2  0  0  0  0
M  END
>  <MODEL>
3

>  <REMARK>
 VINA RESULT:    -7.433      4.147      5.736
 INTER + INTRA:         -10.263
 INTER:                  -9.797
 INTRA:                  -0.466
 UNBOUND:                -0.440
  Name = CHEMBL3787400
  7 active torsions:
  status: ('A' for Active; 'I' for Inactive)
    1  A    between atoms: C_1  and  O_2
    2  A    between atoms: O_2  and  C_3
    3  A    between atoms: C_5  and  C_6
    4  A    between atoms: C_7  and  C_8
    5  A    between atoms: N_10  and  C_11
    6  A    between atoms: C_11  and  C_12
    7  A    between atoms: C_20  and  O_21
                            x       y       z     vdW  Elec       q    Type
                         _______ _______ _______ _____ _____    ______ ____

>  <TORSDO>
F 6

>  <SCORE>
-7.433

>  <RMSD_LB>
4.147

>  <RMSD_UB>
5.736

$$$$
CHEMBL3787400
 OpenBabel10172500323D

 23 24  0  0  0  0  0  0  0  0999 V2000
  134.2550  134.9790  152.0160 C   0  0  0  0  0  3  0  0  0  0  0  0
  134.2080  134.2130  153.1180 C   0  0  0  0  0  3  0  0  0  0  0  0
  133.1620  134.9290  148.3660 C   0  0  0  0  0  0  0  0  0  0  0  0
  133.4730  135.3940  149.6520 C   0  0  0  0  0  3  0  0  0  0  0  0
  133.8980  134.5130  150.6610 C   0  0  0  0  0  0  0  0  0  0  0  0
  134.0390  133.1540  150.3520 C   0  0  0  0  0  3  0  0  0  0  0  0
  133.7340  132.6750  149.0730 C   0  0  0  0  0  3  0  0  0  0  0  0
  133.2930  133.5620  148.0940 C   0  0  0  0  0  0  0  0  0  0  0  0
  132.5770  137.1040  147.5810 C   0  0  0  0  0  1  0  0  0  0  0  0
  132.7350  135.7160  147.3280 O   0  0  0  0  0  0  0  0  0  0  0  0
  132.9900  133.0970  146.8400 O   0  0  0  0  0  0  0  0  0  0  0  0
  132.1150  132.8290  146.6390 H   0  0  0  0  0  0  0  0  0  0  0  0
  134.5880  134.7610  154.4500 C   0  0  0  0  0  0  0  0  0  0  0  0
  134.0170  134.4320  155.4840 O   0  0  0  0  0  0  0  0  0  0  0  0
  135.6250  135.6570  154.3810 N   0  0  0  0  0  0  0  0  0  0  0  0
  136.0350  135.8380  153.5060 H   0  0  0  0  0  0  0  0  0  0  0  0
  136.1410  136.3460  155.5480 C   0  0  0  0  0  2  0  0  0  0  0  0
  137.4700  137.0090  155.2770 C   0  0  0  0  0  0  0  0  0  0  0  0
  138.4650  137.0820  156.2650 C   0  0  0  0  0  3  0  0  0  0  0  0
  139.7190  137.6280  155.9730 C   0  0  0  0  0  3  0  0  0  0  0  0
  139.9930  138.1070  154.6930 C   0  0  0  0  0  3  0  0  0  0  0  0
  139.0100  138.0510  153.7070 C   0  0  0  0  0  3  0  0  0  0  0  0
  137.7580  137.5040  153.9970 C   0  0  0  0  0  3  0  0  0  0  0  0
  1  2  2  0  0  0  0
  2 13  1  0  0  0  0
  3  4  1  0  0  0  0
  4  5  2  0  0  0  0
  5  1  1  0  0  0  0
  6  5  1  0  0  0  0
  7  6  2  0  0  0  0
  8  3  2  0  0  0  0
  8  7  1  0  0  0  0
 10  9  1  0  0  0  0
 10  3  1  0  0  0  0
 11  8  1  0  0  0  0
 12 11  1  0  0  0  0
 13 14  2  0  0  0  0
 15 13  1  0  0  0  0
 15 17  1  0  0  0  0
 16 15  1  0  0  0  0
 18 17  1  0  0  0  0
 18 19  1  0  0  0  0
 20 19  2  0  0  0  0
 21 20  1  0  0  0  0
 22 23  1  0  0  0  0
 22 21  2  0  0  0  0
 23 18  2  0  0  0  0
M  END
>  <MODEL>
4

>  <REMARK>
 VINA RESULT:    -7.345      6.626      9.839
 INTER + INTRA:         -10.147
 INTER:                  -9.658
 INTRA:                  -0.490
 UNBOUND:                -0.440
  Name = CHEMBL3787400
  7 active torsions:
  status: ('A' for Active; 'I' for Inactive)
    1  A    between atoms: C_1  and  O_2
    2  A    between atoms: O_2  and  C_3
    3  A    between atoms: C_5  and  C_6
    4  A    between atoms: C_7  and  C_8
    5  A    between atoms: N_10  and  C_11
    6  A    between atoms: C_11  and  C_12
    7  A    between atoms: C_20  and  O_21
                            x       y       z     vdW  Elec       q    Type
                         _______ _______ _______ _____ _____    ______ ____

>  <TORSDO>
F 6

>  <SCORE>
-7.345

>  <RMSD_LB>
6.626

>  <RMSD_UB>
9.839

$$$$
CHEMBL3787400
 OpenBabel10172500323D

 23 24  0  0  0  0  0  0  0  0999 V2000
  136.2690  135.7740  153.8390 C   0  0  0  0  0  3  0  0  0  0  0  0
  135.2400  134.9230  153.6840 C   0  0  0  0  0  3  0  0  0  0  0  0
  136.5870  136.5020  157.5650 C   0  0  0  0  0  0  0  0  0  0  0  0
  136.1910  135.9070  156.3580 C   0  0  0  0  0  3  0  0  0  0  0  0
  136.6500  136.3960  155.1220 C   0  0  0  0  0  0  0  0  0  0  0  0
  137.5420  137.4760  155.1150 C   0  0  0  0  0  3  0  0  0  0  0  0
  137.9450  138.0790  156.3110 C   0  0  0  0  0  3  0  0  0  0  0  0
  137.4630  137.5920  157.5240 C   0  0  0  0  0  0  0  0  0  0  0  0
  135.0720  135.2130  158.8830 C   0  0  0  0  0  1  0  0  0  0  0  0
  136.1840  136.0940  158.8100 O   0  0  0  0  0  0  0  0  0  0  0  0
  137.8530  138.1820  158.6990 O   0  0  0  0  0  0  0  0  0  0  0  0
  137.3140  138.8380  159.0950 H   0  0  0  0  0  0  0  0  0  0  0  0
  134.9210  134.3410  152.3500 C   0  0  0  0  0  0  0  0  0  0  0  0
  135.7900  134.0130  151.5500 O   0  0  0  0  0  0  0  0  0  0  0  0
  133.5710  134.2220  152.1310 N   0  0  0  0  0  0  0  0  0  0  0  0
  132.9510  134.4920  152.8450 H   0  0  0  0  0  0  0  0  0  0  0  0
  133.0240  133.7140  150.8880 C   0  0  0  0  0  2  0  0  0  0  0  0
  132.9720  134.7750  149.8140 C   0  0  0  0  0  0  0  0  0  0  0  0
  133.1200  134.4480  148.4570 C   0  0  0  0  0  3  0  0  0  0  0  0
  132.9890  135.4290  147.4690 C   0  0  0  0  0  3  0  0  0  0  0  0
  132.7100  136.7480  147.8260 C   0  0  0  0  0  3  0  0  0  0  0  0
  132.5730  137.0870  149.1700 C   0  0  0  0  0  3  0  0  0  0  0  0
  132.7010  136.1080  150.1560 C   0  0  0  0  0  3  0  0  0  0  0  0
  1  5  1  0  0  0  0
  2  1  2  0  0  0  0
  3 10  1  0  0  0  0
  4  3  2  0  0  0  0
  5  4  1  0  0  0  0
  6  5  2  0  0  0  0
  6  7  1  0  0  0  0
  7  8  2  0  0  0  0
  8  3  1  0  0  0  0
  8 11  1  0  0  0  0
 10  9  1  0  0  0  0
 11 12  1  0  0  0  0
 13  2  1  0  0  0  0
 14 13  2  0  0  0  0
 15 13  1  0  0  0  0
 15 16  1  0  0  0  0
 17 15  1  0  0  0  0
 18 23  1  0  0  0  0
 18 17  1  0  0  0  0
 19 18  2  0  0  0  0
 20 21  2  0  0  0  0
 20 19  1  0  0  0  0
 21 22  1  0  0  0  0
 22 23  2  0  0  0  0
M  END
>  <MODEL>
5

>  <REMARK>
 VINA RESULT:    -7.298      7.953     11.126
 INTER + INTRA:         -10.084
 INTER:                  -9.649
 INTRA:                  -0.435
 UNBOUND:                -0.440
  Name = CHEMBL3787400
  7 active torsions:
  status: ('A' for Active; 'I' for Inactive)
    1  A    between atoms: C_1  and  O_2
    2  A    between atoms: O_2  and  C_3
    3  A    between atoms: C_5  and  C_6
    4  A    between atoms: C_7  and  C_8
    5  A    between atoms: N_10  and  C_11
    6  A    between atoms: C_11  and  C_12
    7  A    between atoms: C_20  and  O_21
                            x       y       z     vdW  Elec       q    Type
                         _______ _______ _______ _____ _____    ______ ____

>  <TORSDO>
F 6

>  <SCORE>
-7.298

>  <RMSD_LB>
7.953

>  <RMSD_UB>
11.126

$$$$
CHEMBL3787400
 OpenBabel10172500323D

 23 24  0  0  0  0  0  0  0  0999 V2000
  136.4510  136.3370  153.1320 C   0  0  0  0  0  3  0  0  0  0  0  0
  135.4650  135.8240  153.8870 C   0  0  0  0  0  3  0  0  0  0  0  0
  138.9230  138.0170  155.4960 C   0  0  0  0  0  0  0  0  0  0  0  0
  137.8550  137.2380  155.0260 C   0  0  0  0  0  3  0  0  0  0  0  0
  137.5540  137.1680  153.6550 C   0  0  0  0  0  0  0  0  0  0  0  0
  138.3640  137.8680  152.7520 C   0  0  0  0  0  3  0  0  0  0  0  0
  139.4330  138.6490  153.2050 C   0  0  0  0  0  3  0  0  0  0  0  0
  139.7010  138.7210  154.5700 C   0  0  0  0  0  0  0  0  0  0  0  0
  138.3250  137.7670  157.7920 C   0  0  0  0  0  1  0  0  0  0  0  0
  139.2810  138.1460  156.8130 O   0  0  0  0  0  0  0  0  0  0  0  0
  140.7460  139.4870  155.0190 O   0  0  0  0  0  0  0  0  0  0  0  0
  141.3790  139.1190  155.6040 H   0  0  0  0  0  0  0  0  0  0  0  0
  134.3860  134.9960  153.2790 C   0  0  0  0  0  0  0  0  0  0  0  0
  133.9620  133.9750  153.8090 O   0  0  0  0  0  0  0  0  0  0  0  0
  133.9390  135.4990  152.0830 N   0  0  0  0  0  0  0  0  0  0  0  0
  134.3260  136.3400  151.7500 H   0  0  0  0  0  0  0  0  0  0  0  0
  132.9170  134.8410  151.2920 C   0  0  0  0  0  2  0  0  0  0  0  0
  133.4590  134.3200  149.9820 C   0  0  0  0  0  0  0  0  0  0  0  0
  134.7870  134.5600  149.5950 C   0  0  0  0  0  3  0  0  0  0  0  0
  135.2960  134.0030  148.4180 C   0  0  0  0  0  3  0  0  0  0  0  0
  134.4850  133.2020  147.6140 C   0  0  0  0  0  3  0  0  0  0  0  0
  133.1620  132.9660  147.9820 C   0  0  0  0  0  3  0  0  0  0  0  0
  132.6530  133.5200  149.1590 C   0  0  0  0  0  3  0  0  0  0  0  0
  1  5  1  0  0  0  0
  1  2  2  0  0  0  0
  3 10  1  0  0  0  0
  4  3  1  0  0  0  0
  5  4  2  0  0  0  0
  6  7  2  0  0  0  0
  6  5  1  0  0  0  0
  7  8  1  0  0  0  0
  8 11  1  0  0  0  0
  8  3  2  0  0  0  0
 10  9  1  0  0  0  0
 11 12  1  0  0  0  0
 13 14  2  0  0  0  0
 13  2  1  0  0  0  0
 15 13  1  0  0  0  0
 16 15  1  0  0  0  0
 17 15  1  0  0  0  0
 18 17  1  0  0  0  0
 19 18  1  0  0  0  0
 20 19  2  0  0  0  0
 21 22  2  0  0  0  0
 21 20  1  0  0  0  0
 22 23  1  0  0  0  0
 23 18  2  0  0  0  0
M  END
>  <MODEL>
6

>  <REMARK>
 VINA RESULT:    -7.175      6.111     10.796
 INTER + INTRA:          -9.922
 INTER:                  -9.348
 INTRA:                  -0.574
 UNBOUND:                -0.440
  Name = CHEMBL3787400
  7 active torsions:
  status: ('A' for Active; 'I' for Inactive)
    1  A    between atoms: C_1  and  O_2
    2  A    between atoms: O_2  and  C_3
    3  A    between atoms: C_5  and  C_6
    4  A    between atoms: C_7  and  C_8
    5  A    between atoms: N_10  and  C_11
    6  A    between atoms: C_11  and  C_12
    7  A    between atoms: C_20  and  O_21
                            x       y       z     vdW  Elec       q    Type
                         _______ _______ _______ _____ _____    ______ ____

>  <TORSDO>
F 6

>  <SCORE>
-7.175

>  <RMSD_LB>
6.111

>  <RMSD_UB>
10.796

$$$$
CHEMBL3787400
 OpenBabel10172500323D

 23 24  0  0  0  0  0  0  0  0999 V2000
  142.9650  137.7750  152.9080 C   0  0  0  0  0  3  0  0  0  0  0  0
  143.8850  137.3790  153.8030 C   0  0  0  0  0  3  0  0  0  0  0  0
  139.1820  137.9600  152.4930 C   0  0  0  0  0  0  0  0  0  0  0  0
  140.5470  137.8520  152.1890 C   0  0  0  0  0  3  0  0  0  0  0  0
  141.5240  137.9100  153.1980 C   0  0  0  0  0  0  0  0  0  0  0  0
  141.1090  138.0460  154.5290 C   0  0  0  0  0  3  0  0  0  0  0  0
  139.7510  138.1540  154.8480 C   0  0  0  0  0  3  0  0  0  0  0  0
  138.8000  138.1160  153.8300 C   0  0  0  0  0  0  0  0  0  0  0  0
  138.0030  136.7220  150.8290 C   0  0  0  0  0  1  0  0  0  0  0  0
  138.1670  137.9210  151.5730 O   0  0  0  0  0  0  0  0  0  0  0  0
  137.4690  138.2250  154.1380 O   0  0  0  0  0  0  0  0  0  0  0  0
  136.9650  138.9370  153.7960 H   0  0  0  0  0  0  0  0  0  0  0  0
  145.3220  137.2670  153.4280 C   0  0  0  0  0  0  0  0  0  0  0  0
  146.0700  136.4340  153.9300 O   0  0  0  0  0  0  0  0  0  0  0  0
  145.6990  138.1840  152.4800 N   0  0  0  0  0  0  0  0  0  0  0  0
  145.0190  138.7980  152.1200 H   0  0  0  0  0  0  0  0  0  0  0  0
  147.0590  138.2860  151.9890 C   0  0  0  0  0  2  0  0  0  0  0  0
  147.7440  139.5460  152.4650 C   0  0  0  0  0  0  0  0  0  0  0  0
  147.8710  140.6670  151.6300 C   0  0  0  0  0  3  0  0  0  0  0  0
  148.4350  141.8520  152.1120 C   0  0  0  0  0  3  0  0  0  0  0  0
  148.8790  141.9300  153.4310 C   0  0  0  0  0  3  0  0  0  0  0  0
  148.7690  140.8210  154.2660 C   0  0  0  0  0  3  0  0  0  0  0  0
  148.2040  139.6370  153.7860 C   0  0  0  0  0  3  0  0  0  0  0  0
  1  5  1  0  0  0  0
  1  2  2  0  0  0  0
  3  8  1  0  0  0  0
  4  3  2  0  0  0  0
  4  5  1  0  0  0  0
  5  6  2  0  0  0  0
  6  7  1  0  0  0  0
  8 11  1  0  0  0  0
  8  7  2  0  0  0  0
  9 10  1  0  0  0  0
 10  3  1  0  0  0  0
 12 11  1  0  0  0  0
 13  2  1  0  0  0  0
 13 14  2  0  0  0  0
 15 13  1  0  0  0  0
 16 15  1  0  0  0  0
 17 18  1  0  0  0  0
 17 15  1  0  0  0  0
 18 23  1  0  0  0  0
 19 20  1  0  0  0  0
 19 18  2  0  0  0  0
 20 21  2  0  0  0  0
 21 22  1  0  0  0  0
 23 22  2  0  0  0  0
M  END
>  <MODEL>
7

>  <REMARK>
 VINA RESULT:    -6.915      1.769      2.323
 INTER + INTRA:          -9.578
 INTER:                  -9.049
 INTRA:                  -0.529
 UNBOUND:                -0.440
  Name = CHEMBL3787400
  7 active torsions:
  status: ('A' for Active; 'I' for Inactive)
    1  A    between atoms: C_1  and  O_2
    2  A    between atoms: O_2  and  C_3
    3  A    between atoms: C_5  and  C_6
    4  A    between atoms: C_7  and  C_8
    5  A    between atoms: N_10  and  C_11
    6  A    between atoms: C_11  and  C_12
    7  A    between atoms: C_20  and  O_21
                            x       y       z     vdW  Elec       q    Type
                         _______ _______ _______ _____ _____    ______ ____

>  <TORSDO>
F 6

>  <SCORE>
-6.915

>  <RMSD_LB>
1.769

>  <RMSD_UB>
2.323

$$$$
CHEMBL3787400
 OpenBabel10172500323D

 23 24  0  0  0  0  0  0  0  0999 V2000
  143.9870  140.0180  151.9950 C   0  0  0  0  0  3  0  0  0  0  0  0
  143.9000  139.9670  150.6550 C   0  0  0  0  0  3  0  0  0  0  0  0
  146.9500  140.1640  154.3850 C   0  0  0  0  0  0  0  0  0  0  0  0
  145.8100  139.7020  153.7120 C   0  0  0  0  0  3  0  0  0  0  0  0
  145.1740  140.4890  152.7360 C   0  0  0  0  0  0  0  0  0  0  0  0
  145.7200  141.7400  152.4190 C   0  0  0  0  0  3  0  0  0  0  0  0
  146.8570  142.2130  153.0820 C   0  0  0  0  0  3  0  0  0  0  0  0
  147.4600  141.4260  154.0610 C   0  0  0  0  0  0  0  0  0  0  0  0
  148.1700  138.2050  154.9910 C   0  0  0  0  0  1  0  0  0  0  0  0
  147.6270  139.4660  155.3520 O   0  0  0  0  0  0  0  0  0  0  0  0
  148.5730  141.8870  154.7150 O   0  0  0  0  0  0  0  0  0  0  0  0
  148.6480  142.7960  154.9280 H   0  0  0  0  0  0  0  0  0  0  0  0
  142.6640  139.4750  149.9850 C   0  0  0  0  0  0  0  0  0  0  0  0
  142.0370  140.1560  149.1800 O   0  0  0  0  0  0  0  0  0  0  0  0
  142.3200  138.2040  150.3690 N   0  0  0  0  0  0  0  0  0  0  0  0
  142.9010  137.7290  151.0040 H   0  0  0  0  0  0  0  0  0  0  0  0
  141.1330  137.5330  149.8740 C   0  0  0  0  0  2  0  0  0  0  0  0
  140.0060  137.5540  150.8800 C   0  0  0  0  0  0  0  0  0  0  0  0
  138.7230  137.0920  150.5470 C   0  0  0  0  0  3  0  0  0  0  0  0
  137.7120  137.0440  151.5130 C   0  0  0  0  0  3  0  0  0  0  0  0
  137.9720  137.4570  152.8190 C   0  0  0  0  0  3  0  0  0  0  0  0
  139.2380  137.9280  153.1580 C   0  0  0  0  0  3  0  0  0  0  0  0
  140.2480  137.9750  152.1950 C   0  0  0  0  0  3  0  0  0  0  0  0
  1  5  1  0  0  0  0
  2  1  2  0  0  0  0
  3 10  1  0  0  0  0
  4  3  2  0  0  0  0
  5  4  1  0  0  0  0
  6  5  2  0  0  0  0
  6  7  1  0  0  0  0
  7  8  2  0  0  0  0
  8  3  1  0  0  0  0
  8 11  1  0  0  0  0
  9 10  1  0  0  0  0
 11 12  1  0  0  0  0
 13 15  1  0  0  0  0
 13  2  1  0  0  0  0
 14 13  2  0  0  0  0
 15 16  1  0  0  0  0
 17 15  1  0  0  0  0
 17 18  1  0  0  0  0
 18 23  1  0  0  0  0
 19 18  2  0  0  0  0
 19 20  1  0  0  0  0
 20 21  2  0  0  0  0
 21 22  1  0  0  0  0
 23 22  2  0  0  0  0
M  END
>  <MODEL>
8

>  <REMARK>
 VINA RESULT:    -6.782      2.968      8.353
 INTER + INTRA:          -9.403
 INTER:                  -8.833
 INTRA:                  -0.569
 UNBOUND:                -0.440
  Name = CHEMBL3787400
  7 active torsions:
  status: ('A' for Active; 'I' for Inactive)
    1  A    between atoms: C_1  and  O_2
    2  A    between atoms: O_2  and  C_3
    3  A    between atoms: C_5  and  C_6
    4  A    between atoms: C_7  and  C_8
    5  A    between atoms: N_10  and  C_11
    6  A    between atoms: C_11  and  C_12
    7  A    between atoms: C_20  and  O_21
                            x       y       z     vdW  Elec       q    Type
                         _______ _______ _______ _____ _____    ______ ____

>  <TORSDO>
F 6

>  <SCORE>
-6.782

>  <RMSD_LB>
2.968

>  <RMSD_UB>
8.353

$$$$
CHEMBL3787400
 OpenBabel10172500323D

 23 24  0  0  0  0  0  0  0  0999 V2000
  140.7100  138.3640  152.9960 C   0  0  0  0  0  3  0  0  0  0  0  0
  141.9800  138.4560  152.5660 C   0  0  0  0  0  3  0  0  0  0  0  0
  137.3170  136.9190  152.0350 C   0  0  0  0  0  0  0  0  0  0  0  0
  138.3490  137.4960  152.7910 C   0  0  0  0  0  3  0  0  0  0  0  0
  139.6150  137.7360  152.2300 C   0  0  0  0  0  0  0  0  0  0  0  0
  139.8240  137.4180  150.8810 C   0  0  0  0  0  3  0  0  0  0  0  0
  138.8050  136.8430  150.1150 C   0  0  0  0  0  3  0  0  0  0  0  0
  137.5640  136.5940  150.6970 C   0  0  0  0  0  0  0  0  0  0  0  0
  135.9570  135.9050  153.7120 C   0  0  0  0  0  1  0  0  0  0  0  0
  136.0590  136.6450  152.5040 O   0  0  0  0  0  0  0  0  0  0  0  0
  136.5630  136.0280  149.9500 O   0  0  0  0  0  0  0  0  0  0  0  0
  136.4210  136.3100  149.0670 H   0  0  0  0  0  0  0  0  0  0  0  0
  143.0270  139.1090  153.4010 C   0  0  0  0  0  0  0  0  0  0  0  0
  142.8200  139.4650  154.5560 O   0  0  0  0  0  0  0  0  0  0  0  0
  144.2180  139.2610  152.7380 N   0  0  0  0  0  0  0  0  0  0  0  0
  144.2940  138.9200  151.8180 H   0  0  0  0  0  0  0  0  0  0  0  0
  145.3700  139.9030  153.3400 C   0  0  0  0  0  2  0  0  0  0  0  0
  146.0530  140.8570  152.3870 C   0  0  0  0  0  0  0  0  0  0  0  0
  147.4440  140.8290  152.1990 C   0  0  0  0  0  3  0  0  0  0  0  0
  148.0500  141.6630  151.2550 C   0  0  0  0  0  3  0  0  0  0  0  0
  147.2760  142.5340  150.4900 C   0  0  0  0  0  3  0  0  0  0  0  0
  145.8960  142.5780  150.6750 C   0  0  0  0  0  3  0  0  0  0  0  0
  145.2890  141.7450  151.6160 C   0  0  0  0  0  3  0  0  0  0  0  0
  2  1  2  0  0  0  0
  2 13  1  0  0  0  0
  3 10  1  0  0  0  0
  3  4  1  0  0  0  0
  5  4  2  0  0  0  0
  5  1  1  0  0  0  0
  6  5  1  0  0  0  0
  7  8  1  0  0  0  0
  7  6  2  0  0  0  0
  8  3  2  0  0  0  0
 10  9  1  0  0  0  0
 11  8  1  0  0  0  0
 12 11  1  0  0  0  0
 13 14  2  0  0  0  0
 15 17  1  0  0  0  0
 15 13  1  0  0  0  0
 16 15  1  0  0  0  0
 18 17  1  0  0  0  0
 19 18  1  0  0  0  0
 20 19  2  0  0  0  0
 21 22  2  0  0  0  0
 21 20  1  0  0  0  0
 22 23  1  0  0  0  0
 23 18  2  0  0  0  0
M  END
>  <MODEL>
9

>  <REMARK>
 VINA RESULT:    -6.687      1.678      2.782
 INTER + INTRA:          -9.277
 INTER:                  -8.836
 INTRA:                  -0.440
 UNBOUND:                -0.440
  Name = CHEMBL3787400
  7 active torsions:
  status: ('A' for Active; 'I' for Inactive)
    1  A    between atoms: C_1  and  O_2
    2  A    between atoms: O_2  and  C_3
    3  A    between atoms: C_5  and  C_6
    4  A    between atoms: C_7  and  C_8
    5  A    between atoms: N_10  and  C_11
    6  A    between atoms: C_11  and  C_12
    7  A    between atoms: C_20  and  O_21
                            x       y       z     vdW  Elec       q    Type
                         _______ _______ _______ _____ _____    ______ ____

>  <TORSDO>
F 6

>  <SCORE>
-6.687

>  <RMSD_LB>
1.678

>  <RMSD_UB>
2.782

$$$$
