CHEMBL3457005
 OpenBabel10162523563D

 26 27  0  0  0  0  0  0  0  0999 V2000
  134.7790  134.8640  152.5670 N   0  0  0  0  0  0  0  0  0  0  0  0
  134.9580  135.1370  153.9060 C   0  0  0  0  0  0  0  0  0  0  0  0
  134.4000  134.4820  154.7760 O   0  0  0  0  0  0  0  0  0  0  0  0
  135.7660  136.2290  154.1000 N   0  0  0  0  0  0  0  0  0  0  0  0
  136.1230  136.7360  155.3290 C   0  0  0  0  0  0  0  0  0  0  0  0
  136.6140  137.9450  155.4860 N   0  0  0  0  0  0  0  0  0  0  0  0
  136.8810  138.2320  156.8110 N   0  0  0  0  0  0  0  0  0  0  0  0
  136.6220  137.2070  157.6040 C   0  0  0  0  0  0  0  0  0  0  0  0
  136.0450  135.8220  156.7640 S   0  0  0  0  0  0  0  0  0  0  0  0
  135.2610  135.3980  151.8940 H   0  0  0  0  0  0  0  0  0  0  0  0
  136.1190  136.6830  153.3010 H   0  0  0  0  0  0  0  0  0  0  0  0
  136.7870  137.1590  159.0850 C   0  0  0  0  0  0  0  0  0  0  0  0
  135.7730  137.7710  159.7520 F   0  0  0  0  0  0  0  0  0  0  0  0
  136.8400  135.8840  159.5560 F   0  0  0  0  0  0  0  0  0  0  0  0
  137.9350  137.7680  159.4910 F   0  0  0  0  0  0  0  0  0  0  0  0
  133.8920  133.8040  152.1370 C   0  0  0  0  0  2  0  0  0  0  0  0
  133.0510  134.8000  148.5400 C   0  0  0  0  0  0  0  0  0  0  0  0
  133.1600  134.8230  149.9360 C   0  0  0  0  0  3  0  0  0  0  0  0
  133.7180  133.7360  150.6390 C   0  0  0  0  0  0  0  0  0  0  0  0
  134.1380  132.6090  149.9230 C   0  0  0  0  0  3  0  0  0  0  0  0
  134.0300  132.5720  148.5320 C   0  0  0  0  0  3  0  0  0  0  0  0
  133.4960  133.6640  147.8510 C   0  0  0  0  0  0  0  0  0  0  0  0
  133.3070  137.0160  147.6880 C   0  0  0  0  0  1  0  0  0  0  0  0
  132.5500  135.8160  147.7690 O   0  0  0  0  0  0  0  0  0  0  0  0
  133.4020  133.6340  146.4830 O   0  0  0  0  0  0  0  0  0  0  0  0
  133.6610  134.3800  145.9790 H   0  0  0  0  0  0  0  0  0  0  0  0
  1  2  1  0  0  0  0
  2  4  1  0  0  0  0
  2  3  2  0  0  0  0
  4  5  1  0  0  0  0
  5  6  2  0  0  0  0
  5  9  1  0  0  0  0
  6  7  1  0  0  0  0
  7  8  2  0  0  0  0
  8 12  1  0  0  0  0
  9  8  1  0  0  0  0
 10  1  1  0  0  0  0
 11  4  1  0  0  0  0
 12 15  1  0  0  0  0
 12 14  1  0  0  0  0
 12 13  1  0  0  0  0
 16  1  1  0  0  0  0
 17 18  1  0  0  0  0
 18 19  2  0  0  0  0
 19 16  1  0  0  0  0
 20 19  1  0  0  0  0
 21 20  2  0  0  0  0
 22 21  1  0  0  0  0
 22 17  2  0  0  0  0
 23 24  1  0  0  0  0
 24 17  1  0  0  0  0
 25 22  1  0  0  0  0
 26 25  1  0  0  0  0
M  END
>  <MODEL>
1

>  <REMARK>
 VINA RESULT:    -7.859      0.000      0.000
 INTER + INTRA:         -10.309
 INTER:                 -10.010
 INTRA:                  -0.300
 UNBOUND:                -0.383
  Name = CHEMBL3457005
  6 active torsions:
  status: ('A' for Active; 'I' for Inactive)
    1  A    between atoms: C_1  and  O_2
    2  A    between atoms: O_2  and  C_3
    3  A    between atoms: C_5  and  C_6
    4  A    between atoms: C_6  and  N_7
    5  A    between atoms: C_14  and  C_15
    6  A    between atoms: C_22  and  O_23
                            x       y       z     vdW  Elec       q    Type
                         _______ _______ _______ _____ _____    ______ ____

>  <TORSDO>
F 5

>  <SCORE>
-7.859

>  <RMSD_LB>
0.000

>  <RMSD_UB>
0.000

$$$$
CHEMBL3457005
 OpenBabel10162523563D

 26 27  0  0  0  0  0  0  0  0999 V2000
  142.8230  139.5600  152.7230 N   0  0  0  0  0  0  0  0  0  0  0  0
  141.9940  138.8340  153.5530 C   0  0  0  0  0  0  0  0  0  0  0  0
  142.3490  137.7740  154.0480 O   0  0  0  0  0  0  0  0  0  0  0  0
  140.7610  139.4240  153.6840 N   0  0  0  0  0  0  0  0  0  0  0  0
  139.7290  138.9300  154.4480 C   0  0  0  0  0  0  0  0  0  0  0  0
  138.4830  139.3220  154.3020 N   0  0  0  0  0  0  0  0  0  0  0  0
  137.6270  138.6730  155.1730 N   0  0  0  0  0  0  0  0  0  0  0  0
  138.2700  137.8440  155.9770 C   0  0  0  0  0  0  0  0  0  0  0  0
  139.9690  137.8220  155.7200 S   0  0  0  0  0  0  0  0  0  0  0  0
  142.5130  140.4210  152.3590 H   0  0  0  0  0  0  0  0  0  0  0  0
  140.6040  140.2640  153.1950 H   0  0  0  0  0  0  0  0  0  0  0  0
  137.6700  136.9810  157.0330 C   0  0  0  0  0  0  0  0  0  0  0  0
  138.0410  135.6770  156.9270 F   0  0  0  0  0  0  0  0  0  0  0  0
  138.0240  137.3780  158.2850 F   0  0  0  0  0  0  0  0  0  0  0  0
  136.3090  136.9950  156.9950 F   0  0  0  0  0  0  0  0  0  0  0  0
  144.1420  139.0710  152.3800 C   0  0  0  0  0  2  0  0  0  0  0  0
  147.2070  139.9300  154.5020 C   0  0  0  0  0  0  0  0  0  0  0  0
  146.1280  139.2340  153.9450 C   0  0  0  0  0  3  0  0  0  0  0  0
  145.2590  139.8550  153.0250 C   0  0  0  0  0  0  0  0  0  0  0  0
  145.4690  141.1990  152.6950 C   0  0  0  0  0  3  0  0  0  0  0  0
  146.5390  141.9060  153.2480 C   0  0  0  0  0  3  0  0  0  0  0  0
  147.4010  141.2700  154.1390 C   0  0  0  0  0  0  0  0  0  0  0  0
  147.7560  138.2210  156.0760 C   0  0  0  0  0  1  0  0  0  0  0  0
  148.1190  139.4050  155.3800 O   0  0  0  0  0  0  0  0  0  0  0  0
  148.4590  141.9590  154.6720 O   0  0  0  0  0  0  0  0  0  0  0  0
  148.3910  142.3340  155.5280 H   0  0  0  0  0  0  0  0  0  0  0  0
  1  2  1  0  0  0  0
  2  4  1  0  0  0  0
  2  3  2  0  0  0  0
  4  5  1  0  0  0  0
  5  9  1  0  0  0  0
  6  5  2  0  0  0  0
  6  7  1  0  0  0  0
  7  8  2  0  0  0  0
  8 12  1  0  0  0  0
  9  8  1  0  0  0  0
 10  1  1  0  0  0  0
 11  4  1  0  0  0  0
 12 14  1  0  0  0  0
 13 12  1  0  0  0  0
 15 12  1  0  0  0  0
 16  1  1  0  0  0  0
 16 19  1  0  0  0  0
 17 24  1  0  0  0  0
 18 17  2  0  0  0  0
 19 18  1  0  0  0  0
 20 19  2  0  0  0  0
 20 21  1  0  0  0  0
 21 22  2  0  0  0  0
 22 17  1  0  0  0  0
 22 25  1  0  0  0  0
 24 23  1  0  0  0  0
 25 26  1  0  0  0  0
M  END
>  <MODEL>
2

>  <REMARK>
 VINA RESULT:    -7.690      8.513     11.133
 INTER + INTRA:         -10.097
 INTER:                  -9.726
 INTRA:                  -0.370
 UNBOUND:                -0.383
  Name = CHEMBL3457005
  6 active torsions:
  status: ('A' for Active; 'I' for Inactive)
    1  A    between atoms: C_1  and  O_2
    2  A    between atoms: O_2  and  C_3
    3  A    between atoms: C_5  and  C_6
    4  A    between atoms: C_6  and  N_7
    5  A    between atoms: C_14  and  C_15
    6  A    between atoms: C_22  and  O_23
                            x       y       z     vdW  Elec       q    Type
                         _______ _______ _______ _____ _____    ______ ____

>  <TORSDO>
F 5

>  <SCORE>
-7.690

>  <RMSD_LB>
8.513

>  <RMSD_UB>
11.133

$$$$
CHEMBL3457005
 OpenBabel10162523563D

 26 27  0  0  0  0  0  0  0  0999 V2000
  142.3330  139.5440  153.7310 N   0  0  0  0  0  0  0  0  0  0  0  0
  141.4380  138.7200  154.3800 C   0  0  0  0  0  0  0  0  0  0  0  0
  141.7690  137.6240  154.8100 O   0  0  0  0  0  0  0  0  0  0  0  0
  140.1780  139.2650  154.4170 N   0  0  0  0  0  0  0  0  0  0  0  0
  139.0810  138.6730  155.0000 C   0  0  0  0  0  0  0  0  0  0  0  0
  137.8480  139.0480  154.7430 N   0  0  0  0  0  0  0  0  0  0  0  0
  136.9190  138.2950  155.4360 N   0  0  0  0  0  0  0  0  0  0  0  0
  137.4900  137.4050  156.2280 C   0  0  0  0  0  0  0  0  0  0  0  0
  139.2080  137.4480  156.1780 S   0  0  0  0  0  0  0  0  0  0  0  0
  142.0380  140.4300  153.4170 H   0  0  0  0  0  0  0  0  0  0  0  0
  140.0500  140.1460  153.9970 H   0  0  0  0  0  0  0  0  0  0  0  0
  136.8010  136.4260  157.1160 C   0  0  0  0  0  0  0  0  0  0  0  0
  136.3600  136.9820  158.2760 F   0  0  0  0  0  0  0  0  0  0  0  0
  135.7110  135.8690  156.5210 F   0  0  0  0  0  0  0  0  0  0  0  0
  137.6150  135.3950  157.4720 F   0  0  0  0  0  0  0  0  0  0  0  0
  143.7000  139.1230  153.5050 C   0  0  0  0  0  2  0  0  0  0  0  0
  146.4910  141.5260  152.4690 C   0  0  0  0  0  0  0  0  0  0  0  0
  145.6970  140.6570  153.2270 C   0  0  0  0  0  3  0  0  0  0  0  0
  144.5070  140.1130  152.7010 C   0  0  0  0  0  0  0  0  0  0  0  0
  144.1070  140.4800  151.4110 C   0  0  0  0  0  3  0  0  0  0  0  0
  144.8860  141.3510  150.6480 C   0  0  0  0  0  3  0  0  0  0  0  0
  146.0710  141.8620  151.1750 C   0  0  0  0  0  0  0  0  0  0  0  0
  148.0970  141.8130  154.2110 C   0  0  0  0  0  1  0  0  0  0  0  0
  147.6730  142.0820  152.8830 O   0  0  0  0  0  0  0  0  0  0  0  0
  146.8430  142.7060  150.4200 O   0  0  0  0  0  0  0  0  0  0  0  0
  147.7770  142.6790  150.4940 H   0  0  0  0  0  0  0  0  0  0  0  0
  1  2  1  0  0  0  0
  2  4  1  0  0  0  0
  2  3  2  0  0  0  0
  4  5  1  0  0  0  0
  5  9  1  0  0  0  0
  6  5  2  0  0  0  0
  6  7  1  0  0  0  0
  7  8  2  0  0  0  0
  8 12  1  0  0  0  0
  9  8  1  0  0  0  0
 10  1  1  0  0  0  0
 11  4  1  0  0  0  0
 12 15  1  0  0  0  0
 12 13  1  0  0  0  0
 14 12  1  0  0  0  0
 16  1  1  0  0  0  0
 17 24  1  0  0  0  0
 17 18  1  0  0  0  0
 19 18  2  0  0  0  0
 19 16  1  0  0  0  0
 20 19  1  0  0  0  0
 21 22  1  0  0  0  0
 21 20  2  0  0  0  0
 22 17  2  0  0  0  0
 24 23  1  0  0  0  0
 25 26  1  0  0  0  0
 25 22  1  0  0  0  0
M  END
>  <MODEL>
3

>  <REMARK>
 VINA RESULT:    -7.541      8.358     10.378
 INTER + INTRA:          -9.908
 INTER:                  -9.634
 INTRA:                  -0.275
 UNBOUND:                -0.383
  Name = CHEMBL3457005
  6 active torsions:
  status: ('A' for Active; 'I' for Inactive)
    1  A    between atoms: C_1  and  O_2
    2  A    between atoms: O_2  and  C_3
    3  A    between atoms: C_5  and  C_6
    4  A    between atoms: C_6  and  N_7
    5  A    between atoms: C_14  and  C_15
    6  A    between atoms: C_22  and  O_23
                            x       y       z     vdW  Elec       q    Type
                         _______ _______ _______ _____ _____    ______ ____

>  <TORSDO>
F 5

>  <SCORE>
-7.541

>  <RMSD_LB>
8.358

>  <RMSD_UB>
10.378

$$$$
CHEMBL3457005
 OpenBabel10162523563D

 26 27  0  0  0  0  0  0  0  0999 V2000
  142.6470  138.7040  150.9590 N   0  0  0  0  0  0  0  0  0  0  0  0
  143.7910  139.0340  151.6570 C   0  0  0  0  0  0  0  0  0  0  0  0
  144.2750  138.2800  152.4900 O   0  0  0  0  0  0  0  0  0  0  0  0
  144.2420  140.2880  151.3310 N   0  0  0  0  0  0  0  0  0  0  0  0
  145.3620  140.8850  151.8640 C   0  0  0  0  0  0  0  0  0  0  0  0
  145.5850  142.1780  151.7870 N   0  0  0  0  0  0  0  0  0  0  0  0
  146.7650  142.5410  152.4090 N   0  0  0  0  0  0  0  0  0  0  0  0
  147.4130  141.4970  152.8950 C   0  0  0  0  0  0  0  0  0  0  0  0
  146.6150  140.0020  152.6060 S   0  0  0  0  0  0  0  0  0  0  0  0
  142.2970  139.3250  150.2800 H   0  0  0  0  0  0  0  0  0  0  0  0
  143.7290  140.7980  150.6630 H   0  0  0  0  0  0  0  0  0  0  0  0
  148.7110  141.5140  153.6280 C   0  0  0  0  0  0  0  0  0  0  0  0
  149.7020  142.1360  152.9350 F   0  0  0  0  0  0  0  0  0  0  0  0
  148.6190  142.1560  154.8240 F   0  0  0  0  0  0  0  0  0  0  0  0
  149.1630  140.2590  153.8980 F   0  0  0  0  0  0  0  0  0  0  0  0
  141.9560  137.4580  151.2150 C   0  0  0  0  0  2  0  0  0  0  0  0
  139.7040  138.1500  154.2300 C   0  0  0  0  0  0  0  0  0  0  0  0
  140.8390  137.9340  153.4390 C   0  0  0  0  0  3  0  0  0  0  0  0
  140.7220  137.6200  152.0690 C   0  0  0  0  0  0  0  0  0  0  0  0
  139.4450  137.4940  151.5090 C   0  0  0  0  0  3  0  0  0  0  0  0
  138.3060  137.7020  152.2890 C   0  0  0  0  0  3  0  0  0  0  0  0
  138.4400  138.0330  153.6360 C   0  0  0  0  0  0  0  0  0  0  0  0
  140.3950  137.6130  156.4510 C   0  0  0  0  0  1  0  0  0  0  0  0
  139.7180  138.4860  155.5580 O   0  0  0  0  0  0  0  0  0  0  0  0
  137.3220  138.2510  154.3980 O   0  0  0  0  0  0  0  0  0  0  0  0
  136.4720  138.2100  154.0060 H   0  0  0  0  0  0  0  0  0  0  0  0
  1 16  1  0  0  0  0
  1  2  1  0  0  0  0
  2  3  2  0  0  0  0
  4  2  1  0  0  0  0
  4  5  1  0  0  0  0
  5  9  1  0  0  0  0
  6  5  2  0  0  0  0
  6  7  1  0  0  0  0
  7  8  2  0  0  0  0
  8 12  1  0  0  0  0
  9  8  1  0  0  0  0
 10  1  1  0  0  0  0
 11  4  1  0  0  0  0
 12 15  1  0  0  0  0
 12 14  1  0  0  0  0
 13 12  1  0  0  0  0
 16 19  1  0  0  0  0
 17 24  1  0  0  0  0
 18 17  2  0  0  0  0
 19 18  1  0  0  0  0
 20 19  2  0  0  0  0
 20 21  1  0  0  0  0
 21 22  2  0  0  0  0
 22 17  1  0  0  0  0
 22 25  1  0  0  0  0
 24 23  1  0  0  0  0
 26 25  1  0  0  0  0
M  END
>  <MODEL>
4

>  <REMARK>
 VINA RESULT:    -7.529      9.226     10.877
 INTER + INTRA:          -9.893
 INTER:                  -9.478
 INTRA:                  -0.414
 UNBOUND:                -0.383
  Name = CHEMBL3457005
  6 active torsions:
  status: ('A' for Active; 'I' for Inactive)
    1  A    between atoms: C_1  and  O_2
    2  A    between atoms: O_2  and  C_3
    3  A    between atoms: C_5  and  C_6
    4  A    between atoms: C_6  and  N_7
    5  A    between atoms: C_14  and  C_15
    6  A    between atoms: C_22  and  O_23
                            x       y       z     vdW  Elec       q    Type
                         _______ _______ _______ _____ _____    ______ ____

>  <TORSDO>
F 5

>  <SCORE>
-7.529

>  <RMSD_LB>
9.226

>  <RMSD_UB>
10.877

$$$$
CHEMBL3457005
 OpenBabel10162523563D

 26 27  0  0  0  0  0  0  0  0999 V2000
  138.5940  137.7000  149.9990 N   0  0  0  0  0  0  0  0  0  0  0  0
  137.6910  136.6800  149.7810 C   0  0  0  0  0  0  0  0  0  0  0  0
  138.0080  135.5050  149.9050 O   0  0  0  0  0  0  0  0  0  0  0  0
  136.4710  137.1580  149.3730 N   0  0  0  0  0  0  0  0  0  0  0  0
  135.3760  136.3770  149.0830 C   0  0  0  0  0  0  0  0  0  0  0  0
  134.3470  136.8190  148.3950 N   0  0  0  0  0  0  0  0  0  0  0  0
  133.3800  135.8460  148.2200 N   0  0  0  0  0  0  0  0  0  0  0  0
  133.6990  134.7140  148.8220 C   0  0  0  0  0  0  0  0  0  0  0  0
  135.2020  134.7810  149.6530 S   0  0  0  0  0  0  0  0  0  0  0  0
  138.2990  138.6360  149.9120 H   0  0  0  0  0  0  0  0  0  0  0  0
  136.3700  138.1340  149.2840 H   0  0  0  0  0  0  0  0  0  0  0  0
  132.8980  133.4570  148.8420 C   0  0  0  0  0  0  0  0  0  0  0  0
  132.1080  133.3150  147.7440 F   0  0  0  0  0  0  0  0  0  0  0  0
  133.6820  132.3470  148.8950 F   0  0  0  0  0  0  0  0  0  0  0  0
  132.0680  133.3950  149.9200 F   0  0  0  0  0  0  0  0  0  0  0  0
  139.9680  137.4120  150.3540 C   0  0  0  0  0  2  0  0  0  0  0  0
  139.6420  138.7010  153.9410 C   0  0  0  0  0  0  0  0  0  0  0  0
  139.3450  138.3780  152.6110 C   0  0  0  0  0  3  0  0  0  0  0  0
  140.3220  137.8180  151.7630 C   0  0  0  0  0  0  0  0  0  0  0  0
  141.6150  137.6150  152.2600 C   0  0  0  0  0  3  0  0  0  0  0  0
  141.9250  137.9380  153.5830 C   0  0  0  0  0  3  0  0  0  0  0  0
  140.9410  138.4700  154.4140 C   0  0  0  0  0  0  0  0  0  0  0  0
  137.7130  138.3740  155.3090 C   0  0  0  0  0  1  0  0  0  0  0  0
  138.7550  139.2220  154.8460 O   0  0  0  0  0  0  0  0  0  0  0  0
  141.2420  138.7750  155.7160 O   0  0  0  0  0  0  0  0  0  0  0  0
  142.1150  138.6590  156.0350 H   0  0  0  0  0  0  0  0  0  0  0  0
  1 16  1  0  0  0  0
  2  3  2  0  0  0  0
  2  1  1  0  0  0  0
  4  2  1  0  0  0  0
  5  4  1  0  0  0  0
  5  9  1  0  0  0  0
  6  5  2  0  0  0  0
  7  6  1  0  0  0  0
  7  8  2  0  0  0  0
  8 12  1  0  0  0  0
  8  9  1  0  0  0  0
 10  1  1  0  0  0  0
 11  4  1  0  0  0  0
 12 14  1  0  0  0  0
 12 15  1  0  0  0  0
 13 12  1  0  0  0  0
 16 19  1  0  0  0  0
 17 22  1  0  0  0  0
 17 24  1  0  0  0  0
 18 17  2  0  0  0  0
 19 20  2  0  0  0  0
 19 18  1  0  0  0  0
 20 21  1  0  0  0  0
 21 22  2  0  0  0  0
 22 25  1  0  0  0  0
 24 23  1  0  0  0  0
 25 26  1  0  0  0  0
M  END
>  <MODEL>
5

>  <REMARK>
 VINA RESULT:    -7.291      6.469      9.279
 INTER + INTRA:          -9.592
 INTER:                  -9.191
 INTRA:                  -0.401
 UNBOUND:                -0.383
  Name = CHEMBL3457005
  6 active torsions:
  status: ('A' for Active; 'I' for Inactive)
    1  A    between atoms: C_1  and  O_2
    2  A    between atoms: O_2  and  C_3
    3  A    between atoms: C_5  and  C_6
    4  A    between atoms: C_6  and  N_7
    5  A    between atoms: C_14  and  C_15
    6  A    between atoms: C_22  and  O_23
                            x       y       z     vdW  Elec       q    Type
                         _______ _______ _______ _____ _____    ______ ____

>  <TORSDO>
F 5

>  <SCORE>
-7.291

>  <RMSD_LB>
6.469

>  <RMSD_UB>
9.279

$$$$
CHEMBL3457005
 OpenBabel10162523563D

 26 27  0  0  0  0  0  0  0  0999 V2000
  138.4230  138.1710  152.7300 N   0  0  0  0  0  0  0  0  0  0  0  0
  139.7910  138.1740  152.9040 C   0  0  0  0  0  0  0  0  0  0  0  0
  140.5270  137.4810  152.2160 O   0  0  0  0  0  0  0  0  0  0  0  0
  140.1700  138.9840  153.9450 N   0  0  0  0  0  0  0  0  0  0  0  0
  141.4680  139.1860  154.3530 C   0  0  0  0  0  0  0  0  0  0  0  0
  141.7770  139.6910  155.5260 N   0  0  0  0  0  0  0  0  0  0  0  0
  143.1440  139.7840  155.7110 N   0  0  0  0  0  0  0  0  0  0  0  0
  143.8180  139.3840  154.6470 C   0  0  0  0  0  0  0  0  0  0  0  0
  142.8100  138.8820  153.3480 S   0  0  0  0  0  0  0  0  0  0  0  0
  137.8610  138.7580  153.2870 H   0  0  0  0  0  0  0  0  0  0  0  0
  139.4600  139.4580  154.4360 H   0  0  0  0  0  0  0  0  0  0  0  0
  145.3000  139.3450  154.4930 C   0  0  0  0  0  0  0  0  0  0  0  0
  145.7110  138.4520  153.5530 F   0  0  0  0  0  0  0  0  0  0  0  0
  145.8120  140.5500  154.1250 F   0  0  0  0  0  0  0  0  0  0  0  0
  145.9260  138.9970  155.6510 F   0  0  0  0  0  0  0  0  0  0  0  0
  137.8020  137.3150  151.7400 C   0  0  0  0  0  2  0  0  0  0  0  0
  135.5150  135.5270  154.2310 C   0  0  0  0  0  0  0  0  0  0  0  0
  136.4620  136.4030  153.6860 C   0  0  0  0  0  3  0  0  0  0  0  0
  136.8320  136.3200  152.3290 C   0  0  0  0  0  0  0  0  0  0  0  0
  136.2610  135.3230  151.5290 C   0  0  0  0  0  3  0  0  0  0  0  0
  135.3190  134.4410  152.0630 C   0  0  0  0  0  3  0  0  0  0  0  0
  134.9490  134.5500  153.4010 C   0  0  0  0  0  0  0  0  0  0  0  0
  136.0510  135.6220  156.5560 C   0  0  0  0  0  1  0  0  0  0  0  0
  135.0730  135.5470  155.5280 O   0  0  0  0  0  0  0  0  0  0  0  0
  134.0150  133.6920  153.9210 O   0  0  0  0  0  0  0  0  0  0  0  0
  134.2190  132.7840  154.0260 H   0  0  0  0  0  0  0  0  0  0  0  0
  1  2  1  0  0  0  0
  1 10  1  0  0  0  0
  2  4  1  0  0  0  0
  3  2  2  0  0  0  0
  4  5  1  0  0  0  0
  4 11  1  0  0  0  0
  5  6  2  0  0  0  0
  6  7  1  0  0  0  0
  8  7  2  0  0  0  0
  9  5  1  0  0  0  0
  9  8  1  0  0  0  0
 12  8  1  0  0  0  0
 12 15  1  0  0  0  0
 13 12  1  0  0  0  0
 14 12  1  0  0  0  0
 16 19  1  0  0  0  0
 16  1  1  0  0  0  0
 17 24  1  0  0  0  0
 18 17  1  0  0  0  0
 19 18  2  0  0  0  0
 20 21  2  0  0  0  0
 20 19  1  0  0  0  0
 21 22  1  0  0  0  0
 22 25  1  0  0  0  0
 22 17  2  0  0  0  0
 24 23  1  0  0  0  0
 25 26  1  0  0  0  0
M  END
>  <MODEL>
6

>  <REMARK>
 VINA RESULT:    -7.254      5.702      7.270
 INTER + INTRA:          -9.545
 INTER:                  -9.161
 INTRA:                  -0.384
 UNBOUND:                -0.383
  Name = CHEMBL3457005
  6 active torsions:
  status: ('A' for Active; 'I' for Inactive)
    1  A    between atoms: C_1  and  O_2
    2  A    between atoms: O_2  and  C_3
    3  A    between atoms: C_5  and  C_6
    4  A    between atoms: C_6  and  N_7
    5  A    between atoms: C_14  and  C_15
    6  A    between atoms: C_22  and  O_23
                            x       y       z     vdW  Elec       q    Type
                         _______ _______ _______ _____ _____    ______ ____

>  <TORSDO>
F 5

>  <SCORE>
-7.254

>  <RMSD_LB>
5.702

>  <RMSD_UB>
7.270

$$$$
CHEMBL3457005
 OpenBabel10162523563D

 26 27  0  0  0  0  0  0  0  0999 V2000
  142.5610  139.6290  153.3430 N   0  0  0  0  0  0  0  0  0  0  0  0
  141.6820  138.8310  154.0440 C   0  0  0  0  0  0  0  0  0  0  0  0
  142.0160  137.7410  154.4850 O   0  0  0  0  0  0  0  0  0  0  0  0
  140.4310  139.3920  154.1170 N   0  0  0  0  0  0  0  0  0  0  0  0
  139.3510  138.8270  154.7540 C   0  0  0  0  0  0  0  0  0  0  0  0
  138.1130  139.2120  154.5360 N   0  0  0  0  0  0  0  0  0  0  0  0
  137.2020  138.4860  155.2810 N   0  0  0  0  0  0  0  0  0  0  0  0
  137.7930  137.6060  156.0700 C   0  0  0  0  0  0  0  0  0  0  0  0
  139.5080  137.6270  155.9530 S   0  0  0  0  0  0  0  0  0  0  0  0
  142.2640  140.5120  153.0200 H   0  0  0  0  0  0  0  0  0  0  0  0
  140.2980  140.2660  153.6820 H   0  0  0  0  0  0  0  0  0  0  0  0
  137.1270  136.6570  157.0050 C   0  0  0  0  0  0  0  0  0  0  0  0
  137.8090  135.4900  157.1510 F   0  0  0  0  0  0  0  0  0  0  0  0
  136.9870  137.1770  158.2550 F   0  0  0  0  0  0  0  0  0  0  0  0
  135.8760  136.3190  156.5870 F   0  0  0  0  0  0  0  0  0  0  0  0
  143.9130  139.1860  153.0740 C   0  0  0  0  0  2  0  0  0  0  0  0
  145.2180  140.3070  149.6560 C   0  0  0  0  0  0  0  0  0  0  0  0
  144.6330  139.5390  150.6710 C   0  0  0  0  0  3  0  0  0  0  0  0
  144.6080  139.9940  152.0050 C   0  0  0  0  0  0  0  0  0  0  0  0
  145.2080  141.2200  152.3140 C   0  0  0  0  0  3  0  0  0  0  0  0
  145.7990  141.9920  151.3120 C   0  0  0  0  0  3  0  0  0  0  0  0
  145.7960  141.5380  149.9950 C   0  0  0  0  0  0  0  0  0  0  0  0
  144.0320  139.7650  147.6570 C   0  0  0  0  0  1  0  0  0  0  0  0
  145.2660  139.9620  148.3310 O   0  0  0  0  0  0  0  0  0  0  0  0
  146.3640  142.3020  149.0100 O   0  0  0  0  0  0  0  0  0  0  0  0
  145.8240  142.7040  148.3580 H   0  0  0  0  0  0  0  0  0  0  0  0
  1  2  1  0  0  0  0
  2  4  1  0  0  0  0
  2  3  2  0  0  0  0
  4  5  1  0  0  0  0
  5  9  1  0  0  0  0
  6  5  2  0  0  0  0
  6  7  1  0  0  0  0
  7  8  2  0  0  0  0
  8 12  1  0  0  0  0
  9  8  1  0  0  0  0
 10  1  1  0  0  0  0
 11  4  1  0  0  0  0
 12 13  1  0  0  0  0
 12 14  1  0  0  0  0
 15 12  1  0  0  0  0
 16  1  1  0  0  0  0
 17 22  2  0  0  0  0
 17 18  1  0  0  0  0
 18 19  2  0  0  0  0
 19 20  1  0  0  0  0
 19 16  1  0  0  0  0
 21 20  2  0  0  0  0
 22 21  1  0  0  0  0
 23 24  1  0  0  0  0
 24 17  1  0  0  0  0
 25 22  1  0  0  0  0
 26 25  1  0  0  0  0
M  END
>  <MODEL>
7

>  <REMARK>
 VINA RESULT:    -7.158      8.218      9.679
 INTER + INTRA:          -9.425
 INTER:                  -9.123
 INTRA:                  -0.302
 UNBOUND:                -0.383
  Name = CHEMBL3457005
  6 active torsions:
  status: ('A' for Active; 'I' for Inactive)
    1  A    between atoms: C_1  and  O_2
    2  A    between atoms: O_2  and  C_3
    3  A    between atoms: C_5  and  C_6
    4  A    between atoms: C_6  and  N_7
    5  A    between atoms: C_14  and  C_15
    6  A    between atoms: C_22  and  O_23
                            x       y       z     vdW  Elec       q    Type
                         _______ _______ _______ _____ _____    ______ ____

>  <TORSDO>
F 5

>  <SCORE>
-7.158

>  <RMSD_LB>
8.218

>  <RMSD_UB>
9.679

$$$$
CHEMBL3457005
 OpenBabel10162523563D

 26 27  0  0  0  0  0  0  0  0999 V2000
  138.6400  137.5830  151.8170 N   0  0  0  0  0  0  0  0  0  0  0  0
  137.6540  136.8670  151.1710 C   0  0  0  0  0  0  0  0  0  0  0  0
  137.7870  136.4880  150.0160 O   0  0  0  0  0  0  0  0  0  0  0  0
  136.5430  136.7050  151.9600 N   0  0  0  0  0  0  0  0  0  0  0  0
  135.4020  136.0330  151.5850 C   0  0  0  0  0  0  0  0  0  0  0  0
  134.2560  136.1690  152.2140 N   0  0  0  0  0  0  0  0  0  0  0  0
  133.2540  135.4050  151.6430 N   0  0  0  0  0  0  0  0  0  0  0  0
  133.6960  134.6840  150.6270 C   0  0  0  0  0  0  0  0  0  0  0  0
  135.3750  134.8930  150.3200 S   0  0  0  0  0  0  0  0  0  0  0  0
  138.5090  137.8530  152.7550 H   0  0  0  0  0  0  0  0  0  0  0  0
  136.5640  137.0960  152.8640 H   0  0  0  0  0  0  0  0  0  0  0  0
  132.8990  133.7530  149.7800 C   0  0  0  0  0  0  0  0  0  0  0  0
  133.5920  132.6410  149.4170 F   0  0  0  0  0  0  0  0  0  0  0  0
  131.7770  133.3140  150.4130 F   0  0  0  0  0  0  0  0  0  0  0  0
  132.4840  134.3400  148.6240 F   0  0  0  0  0  0  0  0  0  0  0  0
  139.8650  137.9410  151.1330 C   0  0  0  0  0  2  0  0  0  0  0  0
  143.4900  137.2440  152.1410 C   0  0  0  0  0  0  0  0  0  0  0  0
  142.3200  137.3630  151.3810 C   0  0  0  0  0  3  0  0  0  0  0  0
  141.1020  137.7500  151.9770 C   0  0  0  0  0  0  0  0  0  0  0  0
  141.0670  137.9860  153.3570 C   0  0  0  0  0  3  0  0  0  0  0  0
  142.2260  137.8650  154.1260 C   0  0  0  0  0  3  0  0  0  0  0  0
  143.4260  137.5030  153.5170 C   0  0  0  0  0  0  0  0  0  0  0  0
  144.9340  137.0430  150.2510 C   0  0  0  0  0  1  0  0  0  0  0  0
  144.7220  136.9010  151.6480 O   0  0  0  0  0  0  0  0  0  0  0  0
  144.5670  137.3970  154.2700 O   0  0  0  0  0  0  0  0  0  0  0  0
  144.6780  137.9320  155.0310 H   0  0  0  0  0  0  0  0  0  0  0  0
  1 10  1  0  0  0  0
  2  1  1  0  0  0  0
  2  4  1  0  0  0  0
  3  2  2  0  0  0  0
  4 11  1  0  0  0  0
  5  4  1  0  0  0  0
  5  6  2  0  0  0  0
  7  6  1  0  0  0  0
  8  7  2  0  0  0  0
  9  8  1  0  0  0  0
  9  5  1  0  0  0  0
 12 14  1  0  0  0  0
 12  8  1  0  0  0  0
 13 12  1  0  0  0  0
 15 12  1  0  0  0  0
 16  1  1  0  0  0  0
 16 19  1  0  0  0  0
 17 22  1  0  0  0  0
 18 19  1  0  0  0  0
 18 17  2  0  0  0  0
 19 20  2  0  0  0  0
 20 21  1  0  0  0  0
 22 21  2  0  0  0  0
 22 25  1  0  0  0  0
 23 24  1  0  0  0  0
 24 17  1  0  0  0  0
 25 26  1  0  0  0  0
M  END
>  <MODEL>
8

>  <REMARK>
 VINA RESULT:    -7.102      7.110      9.354
 INTER + INTRA:          -9.354
 INTER:                  -9.053
 INTRA:                  -0.301
 UNBOUND:                -0.383
  Name = CHEMBL3457005
  6 active torsions:
  status: ('A' for Active; 'I' for Inactive)
    1  A    between atoms: C_1  and  O_2
    2  A    between atoms: O_2  and  C_3
    3  A    between atoms: C_5  and  C_6
    4  A    between atoms: C_6  and  N_7
    5  A    between atoms: C_14  and  C_15
    6  A    between atoms: C_22  and  O_23
                            x       y       z     vdW  Elec       q    Type
                         _______ _______ _______ _____ _____    ______ ____

>  <TORSDO>
F 5

>  <SCORE>
-7.102

>  <RMSD_LB>
7.110

>  <RMSD_UB>
9.354

$$$$
CHEMBL3457005
 OpenBabel10162523563D

 26 27  0  0  0  0  0  0  0  0999 V2000
  138.0800  138.0980  151.2370 N   0  0  0  0  0  0  0  0  0  0  0  0
  137.1980  137.0610  151.0180 C   0  0  0  0  0  0  0  0  0  0  0  0
  137.0020  136.1960  151.8600 O   0  0  0  0  0  0  0  0  0  0  0  0
  136.6500  137.1150  149.7610 N   0  0  0  0  0  0  0  0  0  0  0  0
  135.7370  136.2150  149.2610 C   0  0  0  0  0  0  0  0  0  0  0  0
  135.4820  136.0980  147.9770 N   0  0  0  0  0  0  0  0  0  0  0  0
  134.5410  135.1180  147.7190 N   0  0  0  0  0  0  0  0  0  0  0  0
  134.0870  134.5600  148.8280 C   0  0  0  0  0  0  0  0  0  0  0  0
  134.7820  135.2170  150.2570 S   0  0  0  0  0  0  0  0  0  0  0  0
  138.1980  138.7900  150.5450 H   0  0  0  0  0  0  0  0  0  0  0  0
  136.9290  137.8540  149.1740 H   0  0  0  0  0  0  0  0  0  0  0  0
  133.0730  133.4730  148.9300 C   0  0  0  0  0  0  0  0  0  0  0  0
  132.2720  133.5950  150.0220 F   0  0  0  0  0  0  0  0  0  0  0  0
  132.2450  133.4380  147.8510 F   0  0  0  0  0  0  0  0  0  0  0  0
  133.6490  132.2420  149.0140 F   0  0  0  0  0  0  0  0  0  0  0  0
  138.8360  138.1820  152.4700 C   0  0  0  0  0  2  0  0  0  0  0  0
  142.1360  137.0680  150.8870 C   0  0  0  0  0  0  0  0  0  0  0  0
  140.7750  137.3400  151.0740 C   0  0  0  0  0  3  0  0  0  0  0  0
  140.2940  137.8280  152.3060 C   0  0  0  0  0  0  0  0  0  0  0  0
  141.1940  138.0080  153.3620 C   0  0  0  0  0  3  0  0  0  0  0  0
  142.5530  137.7350  153.1900 C   0  0  0  0  0  3  0  0  0  0  0  0
  143.0150  137.2740  151.9590 C   0  0  0  0  0  0  0  0  0  0  0  0
  142.8240  137.5440  148.6520 C   0  0  0  0  0  1  0  0  0  0  0  0
  142.7000  136.6190  149.7220 O   0  0  0  0  0  0  0  0  0  0  0  0
  144.3510  137.0190  151.7860 O   0  0  0  0  0  0  0  0  0  0  0  0
  144.7200  136.2180  152.1020 H   0  0  0  0  0  0  0  0  0  0  0  0
  1 16  1  0  0  0  0
  2  1  1  0  0  0  0
  2  3  2  0  0  0  0
  4  2  1  0  0  0  0
  5  4  1  0  0  0  0
  5  9  1  0  0  0  0
  6  5  2  0  0  0  0
  7  6  1  0  0  0  0
  7  8  2  0  0  0  0
  8 12  1  0  0  0  0
  8  9  1  0  0  0  0
 10  1  1  0  0  0  0
 11  4  1  0  0  0  0
 12 15  1  0  0  0  0
 12 13  1  0  0  0  0
 14 12  1  0  0  0  0
 17 18  2  0  0  0  0
 17 22  1  0  0  0  0
 18 19  1  0  0  0  0
 19 16  1  0  0  0  0
 19 20  2  0  0  0  0
 21 20  1  0  0  0  0
 22 21  2  0  0  0  0
 23 24  1  0  0  0  0
 24 17  1  0  0  0  0
 25 22  1  0  0  0  0
 25 26  1  0  0  0  0
M  END
>  <MODEL>
9

>  <REMARK>
 VINA RESULT:    -6.941      7.130      9.193
 INTER + INTRA:          -9.150
 INTER:                  -8.767
 INTRA:                  -0.383
 UNBOUND:                -0.383
  Name = CHEMBL3457005
  6 active torsions:
  status: ('A' for Active; 'I' for Inactive)
    1  A    between atoms: C_1  and  O_2
    2  A    between atoms: O_2  and  C_3
    3  A    between atoms: C_5  and  C_6
    4  A    between atoms: C_6  and  N_7
    5  A    between atoms: C_14  and  C_15
    6  A    between atoms: C_22  and  O_23
                            x       y       z     vdW  Elec       q    Type
                         _______ _______ _______ _____ _____    ______ ____

>  <TORSDO>
F 5

>  <SCORE>
-6.941

>  <RMSD_LB>
7.130

>  <RMSD_UB>
9.193

$$$$
