CHEMBL4874197
 OpenBabel10172500453D

 26 27  0  0  0  0  0  0  0  0999 V2000
  139.7920  138.4170  154.2750 C   0  0  0  0  0  0  0  0  0  0  0  0
  140.2900  139.2080  155.0720 O   0  0  0  0  0  0  0  0  0  0  0  0
  138.5660  137.8330  154.4980 N   0  0  0  0  0  0  0  0  0  0  0  0
  138.2000  137.2290  153.8100 H   0  0  0  0  0  0  0  0  0  0  0  0
  142.6870  137.3440  152.0830 C   0  0  0  0  0  0  0  0  0  0  0  0
  142.0630  137.1020  150.8630 C   0  0  0  0  0  3  0  0  0  0  0  0
  140.6950  137.3400  150.7080 C   0  0  0  0  0  3  0  0  0  0  0  0
  139.9210  137.8140  151.7730 C   0  0  0  0  0  0  0  0  0  0  0  0
  140.5340  138.0200  153.0280 C   0  0  0  0  0  0  0  0  0  0  0  0
  141.9200  137.8050  153.1570 C   0  0  0  0  0  3  0  0  0  0  0  0
  144.4620  137.4820  153.6530 C   0  0  0  0  0  1  0  0  0  0  0  0
  144.0180  137.1550  152.3400 O   0  0  0  0  0  0  0  0  0  0  0  0
  138.5830  138.0970  151.6530 O   0  0  0  0  0  0  0  0  0  0  0  0
  137.7590  137.1710  150.9550 C   0  0  0  0  0  1  0  0  0  0  0  0
  137.7880  138.0680  155.6990 C   0  0  0  0  0  2  0  0  0  0  0  0
  137.9730  136.9490  156.7220 C   0  0  0  0  0  2  0  0  0  0  0  0
  136.7320  136.1140  156.9170 C   0  0  0  0  0  0  0  0  0  0  0  0
  136.2900  135.7850  158.2030 C   0  0  0  0  0  3  0  0  0  0  0  0
  135.1280  135.0320  158.3820 C   0  0  0  0  0  3  0  0  0  0  0  0
  134.3840  134.6140  157.2740 C   0  0  0  0  0  0  0  0  0  0  0  0
  134.8040  134.9380  155.9810 C   0  0  0  0  0  0  0  0  0  0  0  0
  135.9950  135.6590  155.8140 C   0  0  0  0  0  3  0  0  0  0  0  0
  133.2590  133.8650  157.4880 O   0  0  0  0  0  0  0  0  0  0  0  0
  132.8020  133.4900  156.7620 H   0  0  0  0  0  0  0  0  0  0  0  0
  134.1930  134.5960  154.8030 O   0  0  0  0  0  0  0  0  0  0  0  0
  134.0070  135.6500  153.8680 C   0  0  0  0  0  1  0  0  0  0  0  0
  1  3  1  0  0  0  0
  1  2  2  0  0  0  0
  3 15  1  0  0  0  0
  4  3  1  0  0  0  0
  5 12  1  0  0  0  0
  5 10  1  0  0  0  0
  6  5  2  0  0  0  0
  7  6  1  0  0  0  0
  7  8  2  0  0  0  0
  8  9  1  0  0  0  0
  9 10  2  0  0  0  0
  9  1  1  0  0  0  0
 12 11  1  0  0  0  0
 13  8  1  0  0  0  0
 14 13  1  0  0  0  0
 15 16  1  0  0  0  0
 16 17  1  0  0  0  0
 17 18  1  0  0  0  0
 18 19  2  0  0  0  0
 20 23  1  0  0  0  0
 20 19  1  0  0  0  0
 21 20  2  0  0  0  0
 22 21  1  0  0  0  0
 22 17  2  0  0  0  0
 24 23  1  0  0  0  0
 25 21  1  0  0  0  0
 26 25  1  0  0  0  0
M  END
>  <MODEL>
1

>  <REMARK>
 VINA RESULT:    -7.567      0.000      0.000
 INTER + INTRA:         -11.334
 INTER:                 -10.445
 INTRA:                  -0.889
 UNBOUND:                -0.450
  Name = CHEMBL4874197
  11 active torsions:
  status: ('A' for Active; 'I' for Inactive)
    1  A    between atoms: C_1  and  O_2
    2  A    between atoms: O_2  and  C_3
    3  A    between atoms: C_6  and  O_7
    4  A    between atoms: O_7  and  C_8
    5  A    between atoms: C_9  and  C_10
    6  A    between atoms: N_12  and  C_13
    7  A    between atoms: C_13  and  C_14
    8  A    between atoms: C_14  and  C_15
    9  A    between atoms: C_18  and  O_19
   10  A    between atoms: C_20  and  O_21
   11  A    between atoms: O_21  and  C_22
                            x       y       z     vdW  Elec       q    Type
                         _______ _______ _______ _____ _____    ______ ____

>  <TORSDO>
F 8

>  <SCORE>
-7.567

>  <RMSD_LB>
0.000

>  <RMSD_UB>
0.000

$$$$
CHEMBL4874197
 OpenBabel10172500453D

 26 27  0  0  0  0  0  0  0  0999 V2000
  135.0720  135.2820  155.2620 C   0  0  0  0  0  0  0  0  0  0  0  0
  133.9570  134.7660  155.2640 O   0  0  0  0  0  0  0  0  0  0  0  0
  135.8420  135.3510  154.1230 N   0  0  0  0  0  0  0  0  0  0  0  0
  136.7160  135.8030  154.1720 H   0  0  0  0  0  0  0  0  0  0  0  0
  136.0680  135.4270  158.9120 C   0  0  0  0  0  0  0  0  0  0  0  0
  136.8390  136.5840  158.9650 C   0  0  0  0  0  3  0  0  0  0  0  0
  137.0050  137.3770  157.8270 C   0  0  0  0  0  3  0  0  0  0  0  0
  136.4110  137.0240  156.6090 C   0  0  0  0  0  0  0  0  0  0  0  0
  135.6630  135.8290  156.5330 C   0  0  0  0  0  0  0  0  0  0  0  0
  135.4820  135.0580  157.6980 C   0  0  0  0  0  3  0  0  0  0  0  0
  136.9670  133.9060  160.4980 C   0  0  0  0  0  1  0  0  0  0  0  0
  135.8340  134.5860  159.9660 O   0  0  0  0  0  0  0  0  0  0  0  0
  136.5160  137.7940  155.4780 O   0  0  0  0  0  0  0  0  0  0  0  0
  137.7910  138.3280  155.1440 C   0  0  0  0  0  1  0  0  0  0  0  0
  135.4220  134.7890  152.8540 C   0  0  0  0  0  2  0  0  0  0  0  0
  134.8080  135.8470  151.9400 C   0  0  0  0  0  2  0  0  0  0  0  0
  134.0800  135.2580  150.7580 C   0  0  0  0  0  0  0  0  0  0  0  0
  133.3280  134.0870  150.8950 C   0  0  0  0  0  3  0  0  0  0  0  0
  132.6360  133.5570  149.8050 C   0  0  0  0  0  3  0  0  0  0  0  0
  132.6750  134.2040  148.5650 C   0  0  0  0  0  0  0  0  0  0  0  0
  133.4160  135.3790  148.4080 C   0  0  0  0  0  0  0  0  0  0  0  0
  134.1400  135.8780  149.5000 C   0  0  0  0  0  3  0  0  0  0  0  0
  131.9980  133.6470  147.5160 O   0  0  0  0  0  0  0  0  0  0  0  0
  132.4690  133.2230  146.8260 H   0  0  0  0  0  0  0  0  0  0  0  0
  133.5600  136.1180  147.2630 O   0  0  0  0  0  0  0  0  0  0  0  0
  132.6750  137.2220  147.1180 C   0  0  0  0  0  1  0  0  0  0  0  0
  1  2  2  0  0  0  0
  1  9  1  0  0  0  0
  3  4  1  0  0  0  0
  3  1  1  0  0  0  0
  5  6  1  0  0  0  0
  5 12  1  0  0  0  0
  7  6  2  0  0  0  0
  8  7  1  0  0  0  0
  9  8  2  0  0  0  0
  9 10  1  0  0  0  0
 10  5  2  0  0  0  0
 12 11  1  0  0  0  0
 13  8  1  0  0  0  0
 14 13  1  0  0  0  0
 15  3  1  0  0  0  0
 16 15  1  0  0  0  0
 17 18  1  0  0  0  0
 17 16  1  0  0  0  0
 19 18  2  0  0  0  0
 20 19  1  0  0  0  0
 21 20  2  0  0  0  0
 21 22  1  0  0  0  0
 22 17  2  0  0  0  0
 23 20  1  0  0  0  0
 24 23  1  0  0  0  0
 25 21  1  0  0  0  0
 26 25  1  0  0  0  0
M  END
>  <MODEL>
2

>  <REMARK>
 VINA RESULT:    -7.566      3.808      7.730
 INTER + INTRA:         -11.334
 INTER:                 -10.562
 INTRA:                  -0.772
 UNBOUND:                -0.450
  Name = CHEMBL4874197
  11 active torsions:
  status: ('A' for Active; 'I' for Inactive)
    1  A    between atoms: C_1  and  O_2
    2  A    between atoms: O_2  and  C_3
    3  A    between atoms: C_6  and  O_7
    4  A    between atoms: O_7  and  C_8
    5  A    between atoms: C_9  and  C_10
    6  A    between atoms: N_12  and  C_13
    7  A    between atoms: C_13  and  C_14
    8  A    between atoms: C_14  and  C_15
    9  A    between atoms: C_18  and  O_19
   10  A    between atoms: C_20  and  O_21
   11  A    between atoms: O_21  and  C_22
                            x       y       z     vdW  Elec       q    Type
                         _______ _______ _______ _____ _____    ______ ____

>  <TORSDO>
F 8

>  <SCORE>
-7.566

>  <RMSD_LB>
3.808

>  <RMSD_UB>
7.730

$$$$
CHEMBL4874197
 OpenBabel10172500453D

 26 27  0  0  0  0  0  0  0  0999 V2000
  135.5900  135.9630  153.4880 C   0  0  0  0  0  0  0  0  0  0  0  0
  135.9410  136.4450  152.4140 O   0  0  0  0  0  0  0  0  0  0  0  0
  134.4620  135.1830  153.6020 N   0  0  0  0  0  0  0  0  0  0  0  0
  134.2440  134.7970  154.4820 H   0  0  0  0  0  0  0  0  0  0  0  0
  138.1450  137.5830  155.7650 C   0  0  0  0  0  0  0  0  0  0  0  0
  137.8220  137.0420  157.0060 C   0  0  0  0  0  3  0  0  0  0  0  0
  136.8050  136.0920  157.1220 C   0  0  0  0  0  3  0  0  0  0  0  0
  136.0810  135.6710  156.0000 C   0  0  0  0  0  0  0  0  0  0  0  0
  136.3690  136.2460  154.7440 C   0  0  0  0  0  0  0  0  0  0  0  0
  137.4180  137.1800  154.6410 C   0  0  0  0  0  3  0  0  0  0  0  0
  139.1580  139.0940  154.2400 C   0  0  0  0  0  1  0  0  0  0  0  0
  139.1260  138.5100  155.5390 O   0  0  0  0  0  0  0  0  0  0  0  0
  135.1010  134.7120  156.0640 O   0  0  0  0  0  0  0  0  0  0  0  0
  134.3140  134.6310  157.2470 C   0  0  0  0  0  1  0  0  0  0  0  0
  133.5810  134.9040  152.4850 C   0  0  0  0  0  2  0  0  0  0  0  0
  133.9380  133.5890  151.7960 C   0  0  0  0  0  2  0  0  0  0  0  0
  133.8390  133.6610  150.2930 C   0  0  0  0  0  0  0  0  0  0  0  0
  134.0990  132.5340  149.5060 C   0  0  0  0  0  3  0  0  0  0  0  0
  133.9840  132.5990  148.1160 C   0  0  0  0  0  3  0  0  0  0  0  0
  133.5900  133.7890  147.4970 C   0  0  0  0  0  0  0  0  0  0  0  0
  133.3190  134.9250  148.2660 C   0  0  0  0  0  0  0  0  0  0  0  0
  133.4790  134.8590  149.6570 C   0  0  0  0  0  3  0  0  0  0  0  0
  133.5030  133.8180  146.1320 O   0  0  0  0  0  0  0  0  0  0  0  0
  132.7200  133.5280  145.7070 H   0  0  0  0  0  0  0  0  0  0  0  0
  132.9350  136.1590  147.8100 O   0  0  0  0  0  0  0  0  0  0  0  0
  132.6070  137.1180  148.8070 C   0  0  0  0  0  1  0  0  0  0  0  0
  1  3  1  0  0  0  0
  1  9  1  0  0  0  0
  2  1  2  0  0  0  0
  3  4  1  0  0  0  0
  5  6  1  0  0  0  0
  6  7  2  0  0  0  0
  8 13  1  0  0  0  0
  8  7  1  0  0  0  0
  9  8  2  0  0  0  0
 10  9  1  0  0  0  0
 10  5  2  0  0  0  0
 11 12  1  0  0  0  0
 12  5  1  0  0  0  0
 13 14  1  0  0  0  0
 15  3  1  0  0  0  0
 16 15  1  0  0  0  0
 17 16  1  0  0  0  0
 18 17  2  0  0  0  0
 19 18  1  0  0  0  0
 20 19  2  0  0  0  0
 20 21  1  0  0  0  0
 21 22  2  0  0  0  0
 22 17  1  0  0  0  0
 23 20  1  0  0  0  0
 24 23  1  0  0  0  0
 25 21  1  0  0  0  0
 25 26  1  0  0  0  0
M  END
>  <MODEL>
3

>  <REMARK>
 VINA RESULT:    -7.402      4.044      7.213
 INTER + INTRA:         -11.097
 INTER:                 -10.520
 INTRA:                  -0.577
 UNBOUND:                -0.450
  Name = CHEMBL4874197
  11 active torsions:
  status: ('A' for Active; 'I' for Inactive)
    1  A    between atoms: C_1  and  O_2
    2  A    between atoms: O_2  and  C_3
    3  A    between atoms: C_6  and  O_7
    4  A    between atoms: O_7  and  C_8
    5  A    between atoms: C_9  and  C_10
    6  A    between atoms: N_12  and  C_13
    7  A    between atoms: C_13  and  C_14
    8  A    between atoms: C_14  and  C_15
    9  A    between atoms: C_18  and  O_19
   10  A    between atoms: C_20  and  O_21
   11  A    between atoms: O_21  and  C_22
                            x       y       z     vdW  Elec       q    Type
                         _______ _______ _______ _____ _____    ______ ____

>  <TORSDO>
F 8

>  <SCORE>
-7.402

>  <RMSD_LB>
4.044

>  <RMSD_UB>
7.213

$$$$
CHEMBL4874197
 OpenBabel10172500453D

 26 27  0  0  0  0  0  0  0  0999 V2000
  136.1120  135.8870  153.4920 C   0  0  0  0  0  0  0  0  0  0  0  0
  136.1660  136.7130  152.5850 O   0  0  0  0  0  0  0  0  0  0  0  0
  135.6070  134.6220  153.2970 N   0  0  0  0  0  0  0  0  0  0  0  0
  135.6160  133.9900  154.0530 H   0  0  0  0  0  0  0  0  0  0  0  0
  138.1870  137.4940  156.2220 C   0  0  0  0  0  0  0  0  0  0  0  0
  137.4710  137.1720  157.3690 C   0  0  0  0  0  3  0  0  0  0  0  0
  136.3270  136.3730  157.2900 C   0  0  0  0  0  3  0  0  0  0  0  0
  135.8710  135.8890  156.0580 C   0  0  0  0  0  0  0  0  0  0  0  0
  136.5640  136.2470  154.8820 C   0  0  0  0  0  0  0  0  0  0  0  0
  137.7320  137.0280  154.9850 C   0  0  0  0  0  3  0  0  0  0  0  0
  139.9060  138.4700  154.9060 C   0  0  0  0  0  1  0  0  0  0  0  0
  139.3220  138.2590  156.1880 O   0  0  0  0  0  0  0  0  0  0  0  0
  134.7760  135.0700  155.9390 O   0  0  0  0  0  0  0  0  0  0  0  0
  134.2960  134.4150  157.1080 C   0  0  0  0  0  1  0  0  0  0  0  0
  135.0640  134.1780  152.0290 C   0  0  0  0  0  2  0  0  0  0  0  0
  133.6000  134.5840  151.8650 C   0  0  0  0  0  2  0  0  0  0  0  0
  133.2670  135.0480  150.4690 C   0  0  0  0  0  0  0  0  0  0  0  0
  132.9870  136.3950  150.2140 C   0  0  0  0  0  3  0  0  0  0  0  0
  132.7020  136.8260  148.9170 C   0  0  0  0  0  3  0  0  0  0  0  0
  132.7100  135.9150  147.8550 C   0  0  0  0  0  0  0  0  0  0  0  0
  132.9940  134.5660  148.0880 C   0  0  0  0  0  0  0  0  0  0  0  0
  133.2370  134.1390  149.4010 C   0  0  0  0  0  3  0  0  0  0  0  0
  132.4110  136.3710  146.6010 O   0  0  0  0  0  0  0  0  0  0  0  0
  132.8180  135.9830  145.8520 H   0  0  0  0  0  0  0  0  0  0  0  0
  133.0300  133.5580  147.1610 O   0  0  0  0  0  0  0  0  0  0  0  0
  134.2550  133.4020  146.4570 C   0  0  0  0  0  1  0  0  0  0  0  0
  1  9  1  0  0  0  0
  2  1  2  0  0  0  0
  3  1  1  0  0  0  0
  3  4  1  0  0  0  0
  5  6  1  0  0  0  0
  7  6  2  0  0  0  0
  8  7  1  0  0  0  0
  9 10  1  0  0  0  0
  9  8  2  0  0  0  0
 10  5  2  0  0  0  0
 11 12  1  0  0  0  0
 12  5  1  0  0  0  0
 13  8  1  0  0  0  0
 13 14  1  0  0  0  0
 15  3  1  0  0  0  0
 16 15  1  0  0  0  0
 17 16  1  0  0  0  0
 18 17  1  0  0  0  0
 19 18  2  0  0  0  0
 20 21  2  0  0  0  0
 20 19  1  0  0  0  0
 21 22  1  0  0  0  0
 22 17  2  0  0  0  0
 23 20  1  0  0  0  0
 24 23  1  0  0  0  0
 25 21  1  0  0  0  0
 26 25  1  0  0  0  0
M  END
>  <MODEL>
4

>  <REMARK>
 VINA RESULT:    -7.282      3.981      7.208
 INTER + INTRA:         -10.924
 INTER:                 -10.120
 INTRA:                  -0.804
 UNBOUND:                -0.450
  Name = CHEMBL4874197
  11 active torsions:
  status: ('A' for Active; 'I' for Inactive)
    1  A    between atoms: C_1  and  O_2
    2  A    between atoms: O_2  and  C_3
    3  A    between atoms: C_6  and  O_7
    4  A    between atoms: O_7  and  C_8
    5  A    between atoms: C_9  and  C_10
    6  A    between atoms: N_12  and  C_13
    7  A    between atoms: C_13  and  C_14
    8  A    between atoms: C_14  and  C_15
    9  A    between atoms: C_18  and  O_19
   10  A    between atoms: C_20  and  O_21
   11  A    between atoms: O_21  and  C_22
                            x       y       z     vdW  Elec       q    Type
                         _______ _______ _______ _____ _____    ______ ____

>  <TORSDO>
F 8

>  <SCORE>
-7.282

>  <RMSD_LB>
3.981

>  <RMSD_UB>
7.208

$$$$
CHEMBL4874197
 OpenBabel10172500453D

 26 27  0  0  0  0  0  0  0  0999 V2000
  143.7980  139.9590  150.1850 C   0  0  0  0  0  0  0  0  0  0  0  0
  142.6650  140.3750  150.4090 O   0  0  0  0  0  0  0  0  0  0  0  0
  144.0270  138.6880  149.7080 N   0  0  0  0  0  0  0  0  0  0  0  0
  144.9550  138.4170  149.5170 H   0  0  0  0  0  0  0  0  0  0  0  0
  146.3010  141.9780  152.1850 C   0  0  0  0  0  0  0  0  0  0  0  0
  147.2650  142.2850  151.2310 C   0  0  0  0  0  3  0  0  0  0  0  0
  147.0960  141.8940  149.9010 C   0  0  0  0  0  3  0  0  0  0  0  0
  145.9630  141.1770  149.4990 C   0  0  0  0  0  0  0  0  0  0  0  0
  144.9990  140.8210  150.4670 C   0  0  0  0  0  0  0  0  0  0  0  0
  145.1710  141.2500  151.7970 C   0  0  0  0  0  3  0  0  0  0  0  0
  147.5290  141.9110  154.2160 C   0  0  0  0  0  1  0  0  0  0  0  0
  146.3620  142.3190  153.5090 O   0  0  0  0  0  0  0  0  0  0  0  0
  145.7390  140.8080  148.1960 O   0  0  0  0  0  0  0  0  0  0  0  0
  146.4870  141.4560  147.1750 C   0  0  0  0  0  1  0  0  0  0  0  0
  142.9630  137.7310  149.4740 C   0  0  0  0  0  2  0  0  0  0  0  0
  142.8400  136.7290  150.6200 C   0  0  0  0  0  2  0  0  0  0  0  0
  142.1690  137.3050  151.8420 C   0  0  0  0  0  0  0  0  0  0  0  0
  142.9210  137.6670  152.9640 C   0  0  0  0  0  3  0  0  0  0  0  0
  142.3010  138.2230  154.0840 C   0  0  0  0  0  3  0  0  0  0  0  0
  140.9180  138.4370  154.0890 C   0  0  0  0  0  0  0  0  0  0  0  0
  140.1490  138.0880  152.9750 C   0  0  0  0  0  0  0  0  0  0  0  0
  140.7790  137.4930  151.8730 C   0  0  0  0  0  3  0  0  0  0  0  0
  140.3430  138.9680  155.2100 O   0  0  0  0  0  0  0  0  0  0  0  0
  139.8770  139.7790  155.1580 H   0  0  0  0  0  0  0  0  0  0  0  0
  138.7930  138.2250  152.8320 O   0  0  0  0  0  0  0  0  0  0  0  0
  138.2290  137.6560  151.6570 C   0  0  0  0  0  1  0  0  0  0  0  0
  1  2  2  0  0  0  0
  1  9  1  0  0  0  0
  3  1  1  0  0  0  0
  4  3  1  0  0  0  0
  5 12  1  0  0  0  0
  6  5  2  0  0  0  0
  7  6  1  0  0  0  0
  8  7  2  0  0  0  0
  8  9  1  0  0  0  0
  9 10  2  0  0  0  0
 10  5  1  0  0  0  0
 12 11  1  0  0  0  0
 13  8  1  0  0  0  0
 14 13  1  0  0  0  0
 15  3  1  0  0  0  0
 15 16  1  0  0  0  0
 16 17  1  0  0  0  0
 17 22  2  0  0  0  0
 17 18  1  0  0  0  0
 18 19  2  0  0  0  0
 19 20  1  0  0  0  0
 20 23  1  0  0  0  0
 21 20  2  0  0  0  0
 22 21  1  0  0  0  0
 24 23  1  0  0  0  0
 25 21  1  0  0  0  0
 26 25  1  0  0  0  0
M  END
>  <MODEL>
5

>  <REMARK>
 VINA RESULT:    -7.186      4.587      7.256
 INTER + INTRA:         -10.786
 INTER:                  -9.629
 INTRA:                  -1.157
 UNBOUND:                -0.450
  Name = CHEMBL4874197
  11 active torsions:
  status: ('A' for Active; 'I' for Inactive)
    1  A    between atoms: C_1  and  O_2
    2  A    between atoms: O_2  and  C_3
    3  A    between atoms: C_6  and  O_7
    4  A    between atoms: O_7  and  C_8
    5  A    between atoms: C_9  and  C_10
    6  A    between atoms: N_12  and  C_13
    7  A    between atoms: C_13  and  C_14
    8  A    between atoms: C_14  and  C_15
    9  A    between atoms: C_18  and  O_19
   10  A    between atoms: C_20  and  O_21
   11  A    between atoms: O_21  and  C_22
                            x       y       z     vdW  Elec       q    Type
                         _______ _______ _______ _____ _____    ______ ____

>  <TORSDO>
F 8

>  <SCORE>
-7.186

>  <RMSD_LB>
4.587

>  <RMSD_UB>
7.256

$$$$
CHEMBL4874197
 OpenBabel10172500453D

 26 27  0  0  0  0  0  0  0  0999 V2000
  135.6880  136.0780  153.4160 C   0  0  0  0  0  0  0  0  0  0  0  0
  134.8170  136.4760  154.1850 O   0  0  0  0  0  0  0  0  0  0  0  0
  135.5620  134.8960  152.7210 N   0  0  0  0  0  0  0  0  0  0  0  0
  136.2780  134.6400  152.0940 H   0  0  0  0  0  0  0  0  0  0  0  0
  138.8160  137.9930  154.3560 C   0  0  0  0  0  0  0  0  0  0  0  0
  139.4350  138.1750  153.1240 C   0  0  0  0  0  3  0  0  0  0  0  0
  138.8210  137.7330  151.9500 C   0  0  0  0  0  3  0  0  0  0  0  0
  137.5790  137.0880  151.9860 C   0  0  0  0  0  0  0  0  0  0  0  0
  136.9630  136.8570  153.2350 C   0  0  0  0  0  0  0  0  0  0  0  0
  137.5820  137.3370  154.4050 C   0  0  0  0  0  3  0  0  0  0  0  0
  138.8250  137.7230  156.7150 C   0  0  0  0  0  1  0  0  0  0  0  0
  139.3240  138.3940  155.5620 O   0  0  0  0  0  0  0  0  0  0  0  0
  136.9230  136.6720  150.8540 O   0  0  0  0  0  0  0  0  0  0  0  0
  137.6990  136.1750  149.7710 C   0  0  0  0  0  1  0  0  0  0  0  0
  134.4210  134.0140  152.8690 C   0  0  0  0  0  2  0  0  0  0  0  0
  133.9440  133.4730  151.5230 C   0  0  0  0  0  2  0  0  0  0  0  0
  133.7350  134.5530  150.4910 C   0  0  0  0  0  0  0  0  0  0  0  0
  132.8950  135.6400  150.7570 C   0  0  0  0  0  3  0  0  0  0  0  0
  132.7220  136.6500  149.8090 C   0  0  0  0  0  3  0  0  0  0  0  0
  133.4010  136.5920  148.5870 C   0  0  0  0  0  0  0  0  0  0  0  0
  134.2490  135.5170  148.3040 C   0  0  0  0  0  0  0  0  0  0  0  0
  134.3820  134.4890  149.2480 C   0  0  0  0  0  3  0  0  0  0  0  0
  133.1940  137.5920  147.6770 O   0  0  0  0  0  0  0  0  0  0  0  0
  132.4820  138.1890  147.7910 H   0  0  0  0  0  0  0  0  0  0  0  0
  134.9700  135.3140  147.1570 O   0  0  0  0  0  0  0  0  0  0  0  0
  134.3410  134.5240  146.1560 C   0  0  0  0  0  1  0  0  0  0  0  0
  1  2  2  0  0  0  0
  3 15  1  0  0  0  0
  3  1  1  0  0  0  0
  4  3  1  0  0  0  0
  5 10  1  0  0  0  0
  5 12  1  0  0  0  0
  6  5  2  0  0  0  0
  7  8  2  0  0  0  0
  7  6  1  0  0  0  0
  8  9  1  0  0  0  0
  9  1  1  0  0  0  0
  9 10  2  0  0  0  0
 12 11  1  0  0  0  0
 13  8  1  0  0  0  0
 14 13  1  0  0  0  0
 16 15  1  0  0  0  0
 17 18  1  0  0  0  0
 17 16  1  0  0  0  0
 19 18  2  0  0  0  0
 20 19  1  0  0  0  0
 21 20  2  0  0  0  0
 21 22  1  0  0  0  0
 22 17  2  0  0  0  0
 23 24  1  0  0  0  0
 23 20  1  0  0  0  0
 25 21  1  0  0  0  0
 26 25  1  0  0  0  0
M  END
>  <MODEL>
6

>  <REMARK>
 VINA RESULT:    -7.156      3.567      6.308
 INTER + INTRA:         -10.743
 INTER:                  -9.523
 INTRA:                  -1.220
 UNBOUND:                -0.450
  Name = CHEMBL4874197
  11 active torsions:
  status: ('A' for Active; 'I' for Inactive)
    1  A    between atoms: C_1  and  O_2
    2  A    between atoms: O_2  and  C_3
    3  A    between atoms: C_6  and  O_7
    4  A    between atoms: O_7  and  C_8
    5  A    between atoms: C_9  and  C_10
    6  A    between atoms: N_12  and  C_13
    7  A    between atoms: C_13  and  C_14
    8  A    between atoms: C_14  and  C_15
    9  A    between atoms: C_18  and  O_19
   10  A    between atoms: C_20  and  O_21
   11  A    between atoms: O_21  and  C_22
                            x       y       z     vdW  Elec       q    Type
                         _______ _______ _______ _____ _____    ______ ____

>  <TORSDO>
F 8

>  <SCORE>
-7.156

>  <RMSD_LB>
3.567

>  <RMSD_UB>
6.308

$$$$
CHEMBL4874197
 OpenBabel10172500453D

 26 27  0  0  0  0  0  0  0  0999 V2000
  143.6050  140.2070  150.0300 C   0  0  0  0  0  0  0  0  0  0  0  0
  143.5320  139.8820  148.8480 O   0  0  0  0  0  0  0  0  0  0  0  0
  144.6050  141.0270  150.5010 N   0  0  0  0  0  0  0  0  0  0  0  0
  144.5980  141.2810  151.4520 H   0  0  0  0  0  0  0  0  0  0  0  0
  140.2810  139.0530  151.4310 C   0  0  0  0  0  0  0  0  0  0  0  0
  140.6400  138.5640  152.6820 C   0  0  0  0  0  3  0  0  0  0  0  0
  141.9620  138.6520  153.1260 C   0  0  0  0  0  3  0  0  0  0  0  0
  142.9550  139.2220  152.3210 C   0  0  0  0  0  0  0  0  0  0  0  0
  142.6120  139.6810  151.0310 C   0  0  0  0  0  0  0  0  0  0  0  0
  141.2680  139.6120  150.6130 C   0  0  0  0  0  3  0  0  0  0  0  0
  138.3210  137.7880  150.9930 C   0  0  0  0  0  1  0  0  0  0  0  0
  139.0180  139.0260  150.9040 O   0  0  0  0  0  0  0  0  0  0  0  0
  144.2570  139.3630  152.7330 O   0  0  0  0  0  0  0  0  0  0  0  0
  144.6780  138.6490  153.8890 C   0  0  0  0  0  1  0  0  0  0  0  0
  145.6690  141.5350  149.6560 C   0  0  0  0  0  2  0  0  0  0  0  0
  146.6700  142.3740  150.4480 C   0  0  0  0  0  2  0  0  0  0  0  0
  147.0670  141.7430  151.7590 C   0  0  0  0  0  0  0  0  0  0  0  0
  146.7000  142.3330  152.9730 C   0  0  0  0  0  3  0  0  0  0  0  0
  147.0480  141.7340  154.1850 C   0  0  0  0  0  3  0  0  0  0  0  0
  147.7550  140.5270  154.1960 C   0  0  0  0  0  0  0  0  0  0  0  0
  148.1240  139.9170  152.9930 C   0  0  0  0  0  0  0  0  0  0  0  0
  147.8050  140.5500  151.7840 C   0  0  0  0  0  3  0  0  0  0  0  0
  148.0920  139.9780  155.4030 O   0  0  0  0  0  0  0  0  0  0  0  0
  147.6270  140.2270  156.1770 H   0  0  0  0  0  0  0  0  0  0  0  0
  148.8220  138.7480  152.8400 O   0  0  0  0  0  0  0  0  0  0  0  0
  148.0380  137.5710  152.6880 C   0  0  0  0  0  1  0  0  0  0  0  0
  1  3  1  0  0  0  0
  1  9  1  0  0  0  0
  2  1  2  0  0  0  0
  3  4  1  0  0  0  0
  5  6  1  0  0  0  0
  6  7  2  0  0  0  0
  8 13  1  0  0  0  0
  8  7  1  0  0  0  0
  9  8  2  0  0  0  0
 10  9  1  0  0  0  0
 10  5  2  0  0  0  0
 12 11  1  0  0  0  0
 12  5  1  0  0  0  0
 13 14  1  0  0  0  0
 15 16  1  0  0  0  0
 15  3  1  0  0  0  0
 16 17  1  0  0  0  0
 17 22  2  0  0  0  0
 17 18  1  0  0  0  0
 18 19  2  0  0  0  0
 19 20  1  0  0  0  0
 20 23  1  0  0  0  0
 21 20  2  0  0  0  0
 22 21  1  0  0  0  0
 23 24  1  0  0  0  0
 25 21  1  0  0  0  0
 26 25  1  0  0  0  0
M  END
>  <MODEL>
7

>  <REMARK>
 VINA RESULT:    -7.099      5.241     10.190
 INTER + INTRA:         -10.661
 INTER:                  -9.488
 INTRA:                  -1.174
 UNBOUND:                -0.450
  Name = CHEMBL4874197
  11 active torsions:
  status: ('A' for Active; 'I' for Inactive)
    1  A    between atoms: C_1  and  O_2
    2  A    between atoms: O_2  and  C_3
    3  A    between atoms: C_6  and  O_7
    4  A    between atoms: O_7  and  C_8
    5  A    between atoms: C_9  and  C_10
    6  A    between atoms: N_12  and  C_13
    7  A    between atoms: C_13  and  C_14
    8  A    between atoms: C_14  and  C_15
    9  A    between atoms: C_18  and  O_19
   10  A    between atoms: C_20  and  O_21
   11  A    between atoms: O_21  and  C_22
                            x       y       z     vdW  Elec       q    Type
                         _______ _______ _______ _____ _____    ______ ____

>  <TORSDO>
F 8

>  <SCORE>
-7.099

>  <RMSD_LB>
5.241

>  <RMSD_UB>
10.190

$$$$
CHEMBL4874197
 OpenBabel10172500453D

 26 27  0  0  0  0  0  0  0  0999 V2000
  136.4660  136.5310  151.4570 C   0  0  0  0  0  0  0  0  0  0  0  0
  136.7530  136.7850  152.6240 O   0  0  0  0  0  0  0  0  0  0  0  0
  137.1590  137.0770  150.4010 N   0  0  0  0  0  0  0  0  0  0  0  0
  136.9060  136.8140  149.4860 H   0  0  0  0  0  0  0  0  0  0  0  0
  134.4330  133.9120  149.6290 C   0  0  0  0  0  0  0  0  0  0  0  0
  133.3230  133.7660  150.4550 C   0  0  0  0  0  3  0  0  0  0  0  0
  133.1800  134.5600  151.5950 C   0  0  0  0  0  3  0  0  0  0  0  0
  134.1510  135.5080  151.9390 C   0  0  0  0  0  0  0  0  0  0  0  0
  135.3030  135.6330  151.1340 C   0  0  0  0  0  0  0  0  0  0  0  0
  135.4150  134.8460  149.9710 C   0  0  0  0  0  3  0  0  0  0  0  0
  133.7530  133.3970  147.4130 C   0  0  0  0  0  1  0  0  0  0  0  0
  134.6670  133.1940  148.4860 O   0  0  0  0  0  0  0  0  0  0  0  0
  134.0310  136.3350  153.0290 O   0  0  0  0  0  0  0  0  0  0  0  0
  133.8910  135.7390  154.3140 C   0  0  0  0  0  1  0  0  0  0  0  0
  138.2460  138.0200  150.5760 C   0  0  0  0  0  2  0  0  0  0  0  0
  139.6060  137.3250  150.5720 C   0  0  0  0  0  2  0  0  0  0  0  0
  140.4190  137.6060  151.8110 C   0  0  0  0  0  0  0  0  0  0  0  0
  141.8050  137.4160  151.8130 C   0  0  0  0  0  3  0  0  0  0  0  0
  142.5570  137.7000  152.9540 C   0  0  0  0  0  3  0  0  0  0  0  0
  141.9330  138.1930  154.1040 C   0  0  0  0  0  0  0  0  0  0  0  0
  140.5500  138.3970  154.1210 C   0  0  0  0  0  0  0  0  0  0  0  0
  139.8000  138.0690  152.9820 C   0  0  0  0  0  3  0  0  0  0  0  0
  142.7010  138.4450  155.2080 O   0  0  0  0  0  0  0  0  0  0  0  0
  142.3990  139.0450  155.8610 H   0  0  0  0  0  0  0  0  0  0  0  0
  139.7960  138.8620  155.1660 O   0  0  0  0  0  0  0  0  0  0  0  0
  138.4350  138.4480  155.1870 C   0  0  0  0  0  1  0  0  0  0  0  0
  1  2  2  0  0  0  0
  3 15  1  0  0  0  0
  3  1  1  0  0  0  0
  4  3  1  0  0  0  0
  5 10  2  0  0  0  0
  5  6  1  0  0  0  0
  6  7  2  0  0  0  0
  7  8  1  0  0  0  0
  8 13  1  0  0  0  0
  9  1  1  0  0  0  0
  9  8  2  0  0  0  0
 10  9  1  0  0  0  0
 11 12  1  0  0  0  0
 12  5  1  0  0  0  0
 13 14  1  0  0  0  0
 16 15  1  0  0  0  0
 16 17  1  0  0  0  0
 17 18  2  0  0  0  0
 17 22  1  0  0  0  0
 18 19  1  0  0  0  0
 19 20  2  0  0  0  0
 20 21  1  0  0  0  0
 20 23  1  0  0  0  0
 21 25  1  0  0  0  0
 22 21  2  0  0  0  0
 23 24  1  0  0  0  0
 25 26  1  0  0  0  0
M  END
>  <MODEL>
8

>  <REMARK>
 VINA RESULT:    -7.096      2.892      7.663
 INTER + INTRA:         -10.657
 INTER:                 -10.207
 INTRA:                  -0.450
 UNBOUND:                -0.450
  Name = CHEMBL4874197
  11 active torsions:
  status: ('A' for Active; 'I' for Inactive)
    1  A    between atoms: C_1  and  O_2
    2  A    between atoms: O_2  and  C_3
    3  A    between atoms: C_6  and  O_7
    4  A    between atoms: O_7  and  C_8
    5  A    between atoms: C_9  and  C_10
    6  A    between atoms: N_12  and  C_13
    7  A    between atoms: C_13  and  C_14
    8  A    between atoms: C_14  and  C_15
    9  A    between atoms: C_18  and  O_19
   10  A    between atoms: C_20  and  O_21
   11  A    between atoms: O_21  and  C_22
                            x       y       z     vdW  Elec       q    Type
                         _______ _______ _______ _____ _____    ______ ____

>  <TORSDO>
F 8

>  <SCORE>
-7.096

>  <RMSD_LB>
2.892

>  <RMSD_UB>
7.663

$$$$
CHEMBL4874197
 OpenBabel10172500453D

 26 27  0  0  0  0  0  0  0  0999 V2000
  144.2430  139.9920  149.0520 C   0  0  0  0  0  0  0  0  0  0  0  0
  144.1160  140.0680  147.8330 O   0  0  0  0  0  0  0  0  0  0  0  0
  145.2540  140.6410  149.7220 N   0  0  0  0  0  0  0  0  0  0  0  0
  145.2900  140.5690  150.7040 H   0  0  0  0  0  0  0  0  0  0  0  0
  141.0420  138.9030  150.7580 C   0  0  0  0  0  0  0  0  0  0  0  0
  141.3630  137.6250  151.2040 C   0  0  0  0  0  3  0  0  0  0  0  0
  142.6470  137.1100  151.0140 C   0  0  0  0  0  3  0  0  0  0  0  0
  143.6350  137.8580  150.3630 C   0  0  0  0  0  0  0  0  0  0  0  0
  143.3080  139.1380  149.8650 C   0  0  0  0  0  0  0  0  0  0  0  0
  142.0170  139.6540  150.0940 C   0  0  0  0  0  3  0  0  0  0  0  0
  139.5870  140.6580  150.0960 C   0  0  0  0  0  1  0  0  0  0  0  0
  139.8220  139.5070  150.9000 O   0  0  0  0  0  0  0  0  0  0  0  0
  144.9190  137.4050  150.1890 O   0  0  0  0  0  0  0  0  0  0  0  0
  145.3840  136.3610  151.0360 C   0  0  0  0  0  1  0  0  0  0  0  0
  146.2680  141.4270  149.0470 C   0  0  0  0  0  2  0  0  0  0  0  0
  146.6900  142.6400  149.8740 C   0  0  0  0  0  2  0  0  0  0  0  0
  147.2780  142.2680  151.2130 C   0  0  0  0  0  0  0  0  0  0  0  0
  148.6630  142.2670  151.4070 C   0  0  0  0  0  3  0  0  0  0  0  0
  149.2030  141.9450  152.6540 C   0  0  0  0  0  3  0  0  0  0  0  0
  148.3610  141.6360  153.7270 C   0  0  0  0  0  0  0  0  0  0  0  0
  146.9730  141.6380  153.5550 C   0  0  0  0  0  0  0  0  0  0  0  0
  146.4450  141.9220  152.2880 C   0  0  0  0  0  3  0  0  0  0  0  0
  148.9270  141.3110  154.9290 O   0  0  0  0  0  0  0  0  0  0  0  0
  148.8910  140.4280  155.2390 H   0  0  0  0  0  0  0  0  0  0  0  0
  146.0240  141.3500  154.5000 O   0  0  0  0  0  0  0  0  0  0  0  0
  145.2640  140.1680  154.2800 C   0  0  0  0  0  1  0  0  0  0  0  0
  1  3  1  0  0  0  0
  1  9  1  0  0  0  0
  2  1  2  0  0  0  0
  3  4  1  0  0  0  0
  5 12  1  0  0  0  0
  5  6  1  0  0  0  0
  7  6  2  0  0  0  0
  8  7  1  0  0  0  0
  9 10  1  0  0  0  0
  9  8  2  0  0  0  0
 10  5  2  0  0  0  0
 11 12  1  0  0  0  0
 13  8  1  0  0  0  0
 13 14  1  0  0  0  0
 15  3  1  0  0  0  0
 15 16  1  0  0  0  0
 16 17  1  0  0  0  0
 17 18  2  0  0  0  0
 17 22  1  0  0  0  0
 18 19  1  0  0  0  0
 19 20  2  0  0  0  0
 20 23  1  0  0  0  0
 21 20  1  0  0  0  0
 21 25  1  0  0  0  0
 22 21  2  0  0  0  0
 23 24  1  0  0  0  0
 26 25  1  0  0  0  0
M  END
>  <MODEL>
9

>  <REMARK>
 VINA RESULT:    -7.032      6.235     10.542
 INTER + INTRA:         -10.564
 INTER:                  -9.891
 INTRA:                  -0.673
 UNBOUND:                -0.450
  Name = CHEMBL4874197
  11 active torsions:
  status: ('A' for Active; 'I' for Inactive)
    1  A    between atoms: C_1  and  O_2
    2  A    between atoms: O_2  and  C_3
    3  A    between atoms: C_6  and  O_7
    4  A    between atoms: O_7  and  C_8
    5  A    between atoms: C_9  and  C_10
    6  A    between atoms: N_12  and  C_13
    7  A    between atoms: C_13  and  C_14
    8  A    between atoms: C_14  and  C_15
    9  A    between atoms: C_18  and  O_19
   10  A    between atoms: C_20  and  O_21
   11  A    between atoms: O_21  and  C_22
                            x       y       z     vdW  Elec       q    Type
                         _______ _______ _______ _____ _____    ______ ____

>  <TORSDO>
F 8

>  <SCORE>
-7.032

>  <RMSD_LB>
6.235

>  <RMSD_UB>
10.542

$$$$
