CHEMBL1715643
 OpenBabel10172500313D

 27 28  0  0  0  0  0  0  0  0999 V2000
  134.1590  135.4380  154.0730 C   0  0  0  0  0  2  0  0  0  0  0  0
  133.1710  134.4730  152.0860 N   0  0  0  0  0  0  0  0  0  0  0  0
  134.3520  134.7130  152.7530 C   0  0  0  0  0  0  0  0  0  0  0  0
  135.4490  134.3330  152.3430 O   0  0  0  0  0  0  0  0  0  0  0  0
  132.3220  134.7520  152.4990 H   0  0  0  0  0  0  0  0  0  0  0  0
  133.1500  133.8220  150.7940 C   0  0  0  0  0  2  0  0  0  0  0  0
  132.8370  136.6910  147.5620 C   0  0  0  0  0  0  0  0  0  0  0  0
  133.0790  135.3460  147.2850 C   0  0  0  0  0  3  0  0  0  0  0  0
  133.2080  134.4170  148.3260 C   0  0  0  0  0  3  0  0  0  0  0  0
  133.0870  134.8180  149.6630 C   0  0  0  0  0  0  0  0  0  0  0  0
  132.8410  136.1710  149.9320 C   0  0  0  0  0  3  0  0  0  0  0  0
  132.7180  137.0970  148.8910 C   0  0  0  0  0  3  0  0  0  0  0  0
  133.2260  137.4240  145.3370 C   0  0  0  0  0  1  0  0  0  0  0  0
  132.6990  137.6870  146.6330 O   0  0  0  0  0  0  0  0  0  0  0  0
  134.6830  134.5940  155.2320 C   0  0  0  0  0  2  0  0  0  0  0  0
  135.4050  135.3280  156.3400 C   0  0  0  0  0  0  0  0  0  0  0  0
  136.1590  136.4570  155.9920 C   0  0  0  0  0  3  0  0  0  0  0  0
  136.8170  137.2440  156.9500 C   0  0  0  0  0  0  0  0  0  0  0  0
  136.7270  136.8960  158.3170 C   0  0  0  0  0  0  0  0  0  0  0  0
  135.9290  135.7880  158.6800 C   0  0  0  0  0  0  0  0  0  0  0  0
  135.2930  135.0100  157.6940 C   0  0  0  0  0  3  0  0  0  0  0  0
  137.5420  138.3540  156.5990 O   0  0  0  0  0  0  0  0  0  0  0  0
  138.2340  138.3570  155.3570 C   0  0  0  0  0  1  0  0  0  0  0  0
  137.3770  137.5210  159.3510 O   0  0  0  0  0  0  0  0  0  0  0  0
  136.6810  138.4120  160.2080 C   0  0  0  0  0  1  0  0  0  0  0  0
  135.7030  135.3070  159.9500 O   0  0  0  0  0  0  0  0  0  0  0  0
  136.5040  134.2120  160.3870 C   0  0  0  0  0  1  0  0  0  0  0  0
  1 15  1  0  0  0  0
  2  5  1  0  0  0  0
  2  3  1  0  0  0  0
  3  1  1  0  0  0  0
  4  3  2  0  0  0  0
  6  2  1  0  0  0  0
  7 12  1  0  0  0  0
  8  7  2  0  0  0  0
  8  9  1  0  0  0  0
  9 10  2  0  0  0  0
 10 11  1  0  0  0  0
 10  6  1  0  0  0  0
 12 11  2  0  0  0  0
 13 14  1  0  0  0  0
 14  7  1  0  0  0  0
 15 16  1  0  0  0  0
 16 21  1  0  0  0  0
 17 16  2  0  0  0  0
 17 18  1  0  0  0  0
 18 19  2  0  0  0  0
 19 20  1  0  0  0  0
 19 24  1  0  0  0  0
 20 26  1  0  0  0  0
 21 20  2  0  0  0  0
 22 18  1  0  0  0  0
 23 22  1  0  0  0  0
 24 25  1  0  0  0  0
 26 27  1  0  0  0  0
M  END
>  <MODEL>
1

>  <REMARK>
 VINA RESULT:    -7.159      0.000      0.000
 INTER + INTRA:         -11.789
 INTER:                 -11.206
 INTRA:                  -0.583
 UNBOUND:                -0.863
  Name = CHEMBL1715643
  13 active torsions:
  status: ('A' for Active; 'I' for Inactive)
    1  A    between atoms: C_1  and  O_2
    2  A    between atoms: O_2  and  C_3
    3  A    between atoms: C_6  and  C_7
    4  A    between atoms: C_7  and  N_8
    5  A    between atoms: C_9  and  C_11
    6  A    between atoms: C_11  and  C_12
    7  A    between atoms: C_12  and  C_13
    8  A    between atoms: C_15  and  O_16
    9  A    between atoms: O_16  and  C_17
   10  A    between atoms: C_18  and  O_19
   11  A    between atoms: O_19  and  C_20
   12  A    between atoms: C_21  and  O_22
   13  A    between atoms: O_22  and  C_23
                            x       y       z     vdW  Elec       q    Type
                         _______ _______ _______ _____ _____    ______ ____

>  <TORSDO>
F 9

>  <SCORE>
-7.159

>  <RMSD_LB>
0.000

>  <RMSD_UB>
0.000

$$$$
CHEMBL1715643
 OpenBabel10172500313D

 27 28  0  0  0  0  0  0  0  0999 V2000
  139.1320  138.8930  154.3380 C   0  0  0  0  0  2  0  0  0  0  0  0
  137.6380  137.0390  154.7630 N   0  0  0  0  0  0  0  0  0  0  0  0
  137.8150  138.3970  154.9080 C   0  0  0  0  0  0  0  0  0  0  0  0
  136.9700  139.1400  155.4070 O   0  0  0  0  0  0  0  0  0  0  0  0
  138.3290  136.5110  154.3020 H   0  0  0  0  0  0  0  0  0  0  0  0
  136.4590  136.3710  155.2720 C   0  0  0  0  0  2  0  0  0  0  0  0
  134.4610  134.0270  152.2240 C   0  0  0  0  0  0  0  0  0  0  0  0
  134.3270  133.6880  153.5700 C   0  0  0  0  0  3  0  0  0  0  0  0
  134.9910  134.4250  154.5590 C   0  0  0  0  0  3  0  0  0  0  0  0
  135.7950  135.5210  154.2180 C   0  0  0  0  0  0  0  0  0  0  0  0
  135.9220  135.8570  152.8630 C   0  0  0  0  0  3  0  0  0  0  0  0
  135.2620  135.1160  151.8780 C   0  0  0  0  0  3  0  0  0  0  0  0
  134.2590  133.8000  149.8690 C   0  0  0  0  0  1  0  0  0  0  0  0
  133.8690  133.3810  151.1730 O   0  0  0  0  0  0  0  0  0  0  0  0
  139.4490  138.1870  153.0230 C   0  0  0  0  0  2  0  0  0  0  0  0
  140.9040  137.8870  152.7400 C   0  0  0  0  0  0  0  0  0  0  0  0
  141.2330  137.3940  151.4700 C   0  0  0  0  0  3  0  0  0  0  0  0
  142.5580  137.1410  151.0840 C   0  0  0  0  0  0  0  0  0  0  0  0
  143.6080  137.3850  151.9990 C   0  0  0  0  0  0  0  0  0  0  0  0
  143.2880  137.9280  153.2630 C   0  0  0  0  0  0  0  0  0  0  0  0
  141.9470  138.1580  153.6250 C   0  0  0  0  0  3  0  0  0  0  0  0
  142.8700  136.6690  149.8350 O   0  0  0  0  0  0  0  0  0  0  0  0
  143.0710  137.6010  148.7800 C   0  0  0  0  0  1  0  0  0  0  0  0
  144.9360  137.1120  151.7900 O   0  0  0  0  0  0  0  0  0  0  0  0
  145.8090  138.1120  151.2880 C   0  0  0  0  0  1  0  0  0  0  0  0
  144.1640  138.2500  154.2750 O   0  0  0  0  0  0  0  0  0  0  0  0
  144.4250  139.6330  154.5000 C   0  0  0  0  0  1  0  0  0  0  0  0
  1  3  1  0  0  0  0
  2  3  1  0  0  0  0
  2  6  1  0  0  0  0
  3  4  2  0  0  0  0
  5  2  1  0  0  0  0
  7  8  1  0  0  0  0
  8  9  2  0  0  0  0
 10  9  1  0  0  0  0
 10  6  1  0  0  0  0
 11 10  2  0  0  0  0
 12  7  2  0  0  0  0
 12 11  1  0  0  0  0
 13 14  1  0  0  0  0
 14  7  1  0  0  0  0
 15  1  1  0  0  0  0
 16 15  1  0  0  0  0
 16 21  1  0  0  0  0
 17 16  2  0  0  0  0
 18 17  1  0  0  0  0
 18 19  2  0  0  0  0
 19 20  1  0  0  0  0
 20 21  2  0  0  0  0
 20 26  1  0  0  0  0
 22 18  1  0  0  0  0
 23 22  1  0  0  0  0
 24 19  1  0  0  0  0
 25 24  1  0  0  0  0
 26 27  1  0  0  0  0
M  END
>  <MODEL>
2

>  <REMARK>
 VINA RESULT:    -6.868      4.833      7.705
 INTER + INTRA:         -11.345
 INTER:                 -10.415
 INTRA:                  -0.930
 UNBOUND:                -0.863
  Name = CHEMBL1715643
  13 active torsions:
  status: ('A' for Active; 'I' for Inactive)
    1  A    between atoms: C_1  and  O_2
    2  A    between atoms: O_2  and  C_3
    3  A    between atoms: C_6  and  C_7
    4  A    between atoms: C_7  and  N_8
    5  A    between atoms: C_9  and  C_11
    6  A    between atoms: C_11  and  C_12
    7  A    between atoms: C_12  and  C_13
    8  A    between atoms: C_15  and  O_16
    9  A    between atoms: O_16  and  C_17
   10  A    between atoms: C_18  and  O_19
   11  A    between atoms: O_19  and  C_20
   12  A    between atoms: C_21  and  O_22
   13  A    between atoms: O_22  and  C_23
                            x       y       z     vdW  Elec       q    Type
                         _______ _______ _______ _____ _____    ______ ____

>  <TORSDO>
F 9

>  <SCORE>
-6.868

>  <RMSD_LB>
4.833

>  <RMSD_UB>
7.705

$$$$
CHEMBL1715643
 OpenBabel10172500313D

 27 28  0  0  0  0  0  0  0  0999 V2000
  139.1200  139.1660  154.2370 C   0  0  0  0  0  2  0  0  0  0  0  0
  137.9990  137.1200  154.8770 N   0  0  0  0  0  0  0  0  0  0  0  0
  137.9520  138.4950  154.9370 C   0  0  0  0  0  0  0  0  0  0  0  0
  137.0300  139.1170  155.4640 O   0  0  0  0  0  0  0  0  0  0  0  0
  138.7360  136.6860  154.3880 H   0  0  0  0  0  0  0  0  0  0  0  0
  136.9920  136.2990  155.5130 C   0  0  0  0  0  2  0  0  0  0  0  0
  133.9550  135.0970  152.6660 C   0  0  0  0  0  0  0  0  0  0  0  0
  133.6940  135.0420  154.0350 C   0  0  0  0  0  3  0  0  0  0  0  0
  134.6800  135.4040  154.9620 C   0  0  0  0  0  3  0  0  0  0  0  0
  135.9420  135.8360  154.5340 C   0  0  0  0  0  0  0  0  0  0  0  0
  136.1950  135.8910  153.1560 C   0  0  0  0  0  3  0  0  0  0  0  0
  135.2100  135.5240  152.2340 C   0  0  0  0  0  3  0  0  0  0  0  0
  133.4680  133.7010  150.8070 C   0  0  0  0  0  1  0  0  0  0  0  0
  133.0770  134.7640  151.6700 O   0  0  0  0  0  0  0  0  0  0  0  0
  140.1970  138.1430  153.8860 C   0  0  0  0  0  2  0  0  0  0  0  0
  140.3900  137.8280  152.4200 C   0  0  0  0  0  0  0  0  0  0  0  0
  141.6720  137.4490  151.9980 C   0  0  0  0  0  3  0  0  0  0  0  0
  141.9460  137.0780  150.6720 C   0  0  0  0  0  0  0  0  0  0  0  0
  140.9030  137.0840  149.7190 C   0  0  0  0  0  0  0  0  0  0  0  0
  139.5980  137.4180  150.1470 C   0  0  0  0  0  0  0  0  0  0  0  0
  139.3590  137.7990  151.4810 C   0  0  0  0  0  3  0  0  0  0  0  0
  143.2020  136.6980  150.2730 O   0  0  0  0  0  0  0  0  0  0  0  0
  144.2500  137.6580  150.2990 C   0  0  0  0  0  1  0  0  0  0  0  0
  141.0370  136.8230  148.3780 O   0  0  0  0  0  0  0  0  0  0  0  0
  141.4040  137.8540  147.4750 C   0  0  0  0  0  1  0  0  0  0  0  0
  138.4570  137.4610  149.3790 O   0  0  0  0  0  0  0  0  0  0  0  0
  137.5880  138.5770  149.5600 C   0  0  0  0  0  1  0  0  0  0  0  0
  1  3  1  0  0  0  0
  2  3  1  0  0  0  0
  2  6  1  0  0  0  0
  3  4  2  0  0  0  0
  5  2  1  0  0  0  0
  7  8  1  0  0  0  0
  8  9  2  0  0  0  0
 10  9  1  0  0  0  0
 10  6  1  0  0  0  0
 11 10  2  0  0  0  0
 12  7  2  0  0  0  0
 12 11  1  0  0  0  0
 13 14  1  0  0  0  0
 14  7  1  0  0  0  0
 15  1  1  0  0  0  0
 16 15  1  0  0  0  0
 17 16  1  0  0  0  0
 18 17  2  0  0  0  0
 19 20  2  0  0  0  0
 19 18  1  0  0  0  0
 20 21  1  0  0  0  0
 21 16  2  0  0  0  0
 22 23  1  0  0  0  0
 22 18  1  0  0  0  0
 24 19  1  0  0  0  0
 25 24  1  0  0  0  0
 26 27  1  0  0  0  0
 26 20  1  0  0  0  0
M  END
>  <MODEL>
3

>  <REMARK>
 VINA RESULT:    -6.843      4.558      7.912
 INTER + INTRA:         -11.307
 INTER:                 -10.146
 INTRA:                  -1.161
 UNBOUND:                -0.863
  Name = CHEMBL1715643
  13 active torsions:
  status: ('A' for Active; 'I' for Inactive)
    1  A    between atoms: C_1  and  O_2
    2  A    between atoms: O_2  and  C_3
    3  A    between atoms: C_6  and  C_7
    4  A    between atoms: C_7  and  N_8
    5  A    between atoms: C_9  and  C_11
    6  A    between atoms: C_11  and  C_12
    7  A    between atoms: C_12  and  C_13
    8  A    between atoms: C_15  and  O_16
    9  A    between atoms: O_16  and  C_17
   10  A    between atoms: C_18  and  O_19
   11  A    between atoms: O_19  and  C_20
   12  A    between atoms: C_21  and  O_22
   13  A    between atoms: O_22  and  C_23
                            x       y       z     vdW  Elec       q    Type
                         _______ _______ _______ _____ _____    ______ ____

>  <TORSDO>
F 9

>  <SCORE>
-6.843

>  <RMSD_LB>
4.558

>  <RMSD_UB>
7.912

$$$$
CHEMBL1715643
 OpenBabel10172500313D

 27 28  0  0  0  0  0  0  0  0999 V2000
  141.6210  137.3140  149.5130 C   0  0  0  0  0  2  0  0  0  0  0  0
  143.4530  138.8770  149.2850 N   0  0  0  0  0  0  0  0  0  0  0  0
  142.0860  138.7270  149.2120 C   0  0  0  0  0  0  0  0  0  0  0  0
  141.3160  139.6570  148.9730 O   0  0  0  0  0  0  0  0  0  0  0  0
  144.0070  138.1040  149.5390 H   0  0  0  0  0  0  0  0  0  0  0  0
  144.0920  140.1430  148.9990 C   0  0  0  0  0  2  0  0  0  0  0  0
  145.9380  141.8350  152.5360 C   0  0  0  0  0  0  0  0  0  0  0  0
  146.1280  142.4330  151.2900 C   0  0  0  0  0  3  0  0  0  0  0  0
  145.5560  141.8770  150.1390 C   0  0  0  0  0  3  0  0  0  0  0  0
  144.7750  140.7160  150.2150 C   0  0  0  0  0  0  0  0  0  0  0  0
  144.5870  140.1230  151.4710 C   0  0  0  0  0  3  0  0  0  0  0  0
  145.1630  140.6780  152.6180 C   0  0  0  0  0  3  0  0  0  0  0  0
  147.5910  141.5930  154.2220 C   0  0  0  0  0  1  0  0  0  0  0  0
  146.4480  142.2810  153.7240 O   0  0  0  0  0  0  0  0  0  0  0  0
  140.3320  137.3350  150.3310 C   0  0  0  0  0  2  0  0  0  0  0  0
  140.4600  137.6620  151.8010 C   0  0  0  0  0  0  0  0  0  0  0  0
  141.7270  137.5380  152.3900 C   0  0  0  0  0  3  0  0  0  0  0  0
  141.9670  137.8740  153.7310 C   0  0  0  0  0  0  0  0  0  0  0  0
  140.9040  138.3550  154.5290 C   0  0  0  0  0  0  0  0  0  0  0  0
  139.6360  138.5300  153.9300 C   0  0  0  0  0  0  0  0  0  0  0  0
  139.4240  138.1690  152.5860 C   0  0  0  0  0  3  0  0  0  0  0  0
  143.2120  137.7590  154.2930 O   0  0  0  0  0  0  0  0  0  0  0  0
  144.2180  137.0390  153.5920 C   0  0  0  0  0  1  0  0  0  0  0  0
  140.9710  138.6470  155.8680 O   0  0  0  0  0  0  0  0  0  0  0  0
  140.6800  137.6540  156.8390 C   0  0  0  0  0  1  0  0  0  0  0  0
  138.4900  138.9990  154.5310 O   0  0  0  0  0  0  0  0  0  0  0  0
  137.5710  138.0330  155.0340 C   0  0  0  0  0  1  0  0  0  0  0  0
  1 15  1  0  0  0  0
  2  5  1  0  0  0  0
  3  2  1  0  0  0  0
  3  1  1  0  0  0  0
  4  3  2  0  0  0  0
  6  2  1  0  0  0  0
  6 10  1  0  0  0  0
  7 12  1  0  0  0  0
  7 14  1  0  0  0  0
  8  7  2  0  0  0  0
  9 10  2  0  0  0  0
  9  8  1  0  0  0  0
 10 11  1  0  0  0  0
 11 12  2  0  0  0  0
 14 13  1  0  0  0  0
 15 16  1  0  0  0  0
 16 17  2  0  0  0  0
 16 21  1  0  0  0  0
 17 18  1  0  0  0  0
 18 22  1  0  0  0  0
 18 19  2  0  0  0  0
 19 24  1  0  0  0  0
 20 19  1  0  0  0  0
 20 26  1  0  0  0  0
 21 20  2  0  0  0  0
 23 22  1  0  0  0  0
 24 25  1  0  0  0  0
 26 27  1  0  0  0  0
M  END
>  <MODEL>
4

>  <REMARK>
 VINA RESULT:    -6.740      6.970     10.447
 INTER + INTRA:         -11.149
 INTER:                  -9.958
 INTRA:                  -1.191
 UNBOUND:                -0.863
  Name = CHEMBL1715643
  13 active torsions:
  status: ('A' for Active; 'I' for Inactive)
    1  A    between atoms: C_1  and  O_2
    2  A    between atoms: O_2  and  C_3
    3  A    between atoms: C_6  and  C_7
    4  A    between atoms: C_7  and  N_8
    5  A    between atoms: C_9  and  C_11
    6  A    between atoms: C_11  and  C_12
    7  A    between atoms: C_12  and  C_13
    8  A    between atoms: C_15  and  O_16
    9  A    between atoms: O_16  and  C_17
   10  A    between atoms: C_18  and  O_19
   11  A    between atoms: O_19  and  C_20
   12  A    between atoms: C_21  and  O_22
   13  A    between atoms: O_22  and  C_23
                            x       y       z     vdW  Elec       q    Type
                         _______ _______ _______ _____ _____    ______ ____

>  <TORSDO>
F 9

>  <SCORE>
-6.740

>  <RMSD_LB>
6.970

>  <RMSD_UB>
10.447

$$$$
CHEMBL1715643
 OpenBabel10172500313D

 27 28  0  0  0  0  0  0  0  0999 V2000
  143.1900  139.1960  151.7230 C   0  0  0  0  0  2  0  0  0  0  0  0
  145.3500  140.0550  152.3930 N   0  0  0  0  0  0  0  0  0  0  0  0
  144.7020  139.0760  151.6720 C   0  0  0  0  0  0  0  0  0  0  0  0
  145.2920  138.2190  151.0150 O   0  0  0  0  0  0  0  0  0  0  0  0
  144.8180  140.7470  152.8490 H   0  0  0  0  0  0  0  0  0  0  0  0
  146.7930  140.0920  152.4930 C   0  0  0  0  0  2  0  0  0  0  0  0
  148.3260  137.6060  155.6950 C   0  0  0  0  0  0  0  0  0  0  0  0
  148.8150  137.4600  154.3970 C   0  0  0  0  0  3  0  0  0  0  0  0
  148.3060  138.2420  153.3520 C   0  0  0  0  0  3  0  0  0  0  0  0
  147.3030  139.1910  153.5900 C   0  0  0  0  0  0  0  0  0  0  0  0
  146.8190  139.3330  154.8980 C   0  0  0  0  0  3  0  0  0  0  0  0
  147.3260  138.5480  155.9380 C   0  0  0  0  0  3  0  0  0  0  0  0
  148.6060  137.5460  158.0520 C   0  0  0  0  0  1  0  0  0  0  0  0
  148.7400  136.8990  156.7910 O   0  0  0  0  0  0  0  0  0  0  0  0
  142.5490  137.8290  151.9480 C   0  0  0  0  0  2  0  0  0  0  0  0
  141.1600  137.8140  152.5460 C   0  0  0  0  0  0  0  0  0  0  0  0
  141.0360  138.0910  153.9150 C   0  0  0  0  0  3  0  0  0  0  0  0
  139.7900  138.1620  154.5560 C   0  0  0  0  0  0  0  0  0  0  0  0
  138.6100  137.9480  153.8080 C   0  0  0  0  0  0  0  0  0  0  0  0
  138.7240  137.7170  152.4180 C   0  0  0  0  0  0  0  0  0  0  0  0
  139.9900  137.6370  151.8080 C   0  0  0  0  0  3  0  0  0  0  0  0
  139.6800  138.4450  155.8930 O   0  0  0  0  0  0  0  0  0  0  0  0
  139.7330  137.3750  156.8270 C   0  0  0  0  0  1  0  0  0  0  0  0
  137.3340  137.9080  154.3120 O   0  0  0  0  0  0  0  0  0  0  0  0
  136.7470  136.6750  154.6950 C   0  0  0  0  0  1  0  0  0  0  0  0
  137.6990  137.5060  151.5240 O   0  0  0  0  0  0  0  0  0  0  0  0
  137.9380  136.5890  150.4590 C   0  0  0  0  0  1  0  0  0  0  0  0
  1 15  1  0  0  0  0
  2  6  1  0  0  0  0
  2  5  1  0  0  0  0
  3  1  1  0  0  0  0
  3  2  1  0  0  0  0
  4  3  2  0  0  0  0
  6 10  1  0  0  0  0
  7 12  1  0  0  0  0
  7 14  1  0  0  0  0
  8  7  2  0  0  0  0
  9 10  2  0  0  0  0
  9  8  1  0  0  0  0
 10 11  1  0  0  0  0
 11 12  2  0  0  0  0
 14 13  1  0  0  0  0
 15 16  1  0  0  0  0
 16 17  1  0  0  0  0
 17 18  2  0  0  0  0
 18 22  1  0  0  0  0
 19 24  1  0  0  0  0
 19 18  1  0  0  0  0
 20 19  2  0  0  0  0
 21 20  1  0  0  0  0
 21 16  2  0  0  0  0
 22 23  1  0  0  0  0
 24 25  1  0  0  0  0
 26 20  1  0  0  0  0
 27 26  1  0  0  0  0
M  END
>  <MODEL>
5

>  <REMARK>
 VINA RESULT:    -6.645      7.345     11.924
 INTER + INTRA:         -11.004
 INTER:                 -10.215
 INTRA:                  -0.788
 UNBOUND:                -0.863
  Name = CHEMBL1715643
  13 active torsions:
  status: ('A' for Active; 'I' for Inactive)
    1  A    between atoms: C_1  and  O_2
    2  A    between atoms: O_2  and  C_3
    3  A    between atoms: C_6  and  C_7
    4  A    between atoms: C_7  and  N_8
    5  A    between atoms: C_9  and  C_11
    6  A    between atoms: C_11  and  C_12
    7  A    between atoms: C_12  and  C_13
    8  A    between atoms: C_15  and  O_16
    9  A    between atoms: O_16  and  C_17
   10  A    between atoms: C_18  and  O_19
   11  A    between atoms: O_19  and  C_20
   12  A    between atoms: C_21  and  O_22
   13  A    between atoms: O_22  and  C_23
                            x       y       z     vdW  Elec       q    Type
                         _______ _______ _______ _____ _____    ______ ____

>  <TORSDO>
F 9

>  <SCORE>
-6.645

>  <RMSD_LB>
7.345

>  <RMSD_UB>
11.924

$$$$
CHEMBL1715643
 OpenBabel10172500313D

 27 28  0  0  0  0  0  0  0  0999 V2000
  139.8960  139.0390  149.7410 C   0  0  0  0  0  2  0  0  0  0  0  0
  141.8970  140.0320  150.6690 N   0  0  0  0  0  0  0  0  0  0  0  0
  141.3570  139.4110  149.5650 C   0  0  0  0  0  0  0  0  0  0  0  0
  141.9840  139.2210  148.5230 O   0  0  0  0  0  0  0  0  0  0  0  0
  141.3230  140.2070  151.4500 H   0  0  0  0  0  0  0  0  0  0  0  0
  143.2870  140.4350  150.7080 C   0  0  0  0  0  2  0  0  0  0  0  0
  145.4130  138.5780  153.9960 C   0  0  0  0  0  0  0  0  0  0  0  0
  144.0190  138.6300  154.0010 C   0  0  0  0  0  3  0  0  0  0  0  0
  143.3260  139.2520  152.9550 C   0  0  0  0  0  3  0  0  0  0  0  0
  144.0160  139.8250  151.8790 C   0  0  0  0  0  0  0  0  0  0  0  0
  145.4170  139.7670  151.8800 C   0  0  0  0  0  3  0  0  0  0  0  0
  146.1060  139.1500  152.9290 C   0  0  0  0  0  3  0  0  0  0  0  0
  147.3220  138.7620  155.3960 C   0  0  0  0  0  1  0  0  0  0  0  0
  146.1960  138.0060  154.9610 O   0  0  0  0  0  0  0  0  0  0  0  0
  139.7650  137.6490  150.3570 C   0  0  0  0  0  2  0  0  0  0  0  0
  139.0890  137.5590  151.7060 C   0  0  0  0  0  0  0  0  0  0  0  0
  139.7610  138.1030  152.8100 C   0  0  0  0  0  3  0  0  0  0  0  0
  139.1970  138.1260  154.0950 C   0  0  0  0  0  0  0  0  0  0  0  0
  137.9070  137.5850  154.2980 C   0  0  0  0  0  0  0  0  0  0  0  0
  137.2030  137.0800  153.1810 C   0  0  0  0  0  0  0  0  0  0  0  0
  137.8030  137.0580  151.9080 C   0  0  0  0  0  3  0  0  0  0  0  0
  139.8590  138.6700  155.1660 O   0  0  0  0  0  0  0  0  0  0  0  0
  140.7600  137.8540  155.9020 C   0  0  0  0  0  1  0  0  0  0  0  0
  137.2650  137.4680  155.5050 O   0  0  0  0  0  0  0  0  0  0  0  0
  137.3750  136.2780  156.2690 C   0  0  0  0  0  1  0  0  0  0  0  0
  135.9400  136.5340  153.1730 O   0  0  0  0  0  0  0  0  0  0  0  0
  135.8360  135.1290  152.9560 C   0  0  0  0  0  1  0  0  0  0  0  0
  1 15  1  0  0  0  0
  2  6  1  0  0  0  0
  2  5  1  0  0  0  0
  3  1  1  0  0  0  0
  3  2  1  0  0  0  0
  4  3  2  0  0  0  0
  6 10  1  0  0  0  0
  7  8  1  0  0  0  0
  7 14  1  0  0  0  0
  9  8  2  0  0  0  0
 10 11  2  0  0  0  0
 10  9  1  0  0  0  0
 11 12  1  0  0  0  0
 12  7  2  0  0  0  0
 14 13  1  0  0  0  0
 15 16  1  0  0  0  0
 16 21  2  0  0  0  0
 16 17  1  0  0  0  0
 17 18  2  0  0  0  0
 18 19  1  0  0  0  0
 18 22  1  0  0  0  0
 19 24  1  0  0  0  0
 20 19  2  0  0  0  0
 21 20  1  0  0  0  0
 22 23  1  0  0  0  0
 24 25  1  0  0  0  0
 26 20  1  0  0  0  0
 27 26  1  0  0  0  0
M  END
>  <MODEL>
6

>  <REMARK>
 VINA RESULT:    -6.136      5.844      9.756
 INTER + INTRA:         -10.227
 INTER:                  -8.985
 INTRA:                  -1.242
 UNBOUND:                -0.863
  Name = CHEMBL1715643
  13 active torsions:
  status: ('A' for Active; 'I' for Inactive)
    1  A    between atoms: C_1  and  O_2
    2  A    between atoms: O_2  and  C_3
    3  A    between atoms: C_6  and  C_7
    4  A    between atoms: C_7  and  N_8
    5  A    between atoms: C_9  and  C_11
    6  A    between atoms: C_11  and  C_12
    7  A    between atoms: C_12  and  C_13
    8  A    between atoms: C_15  and  O_16
    9  A    between atoms: O_16  and  C_17
   10  A    between atoms: C_18  and  O_19
   11  A    between atoms: O_19  and  C_20
   12  A    between atoms: C_21  and  O_22
   13  A    between atoms: O_22  and  C_23
                            x       y       z     vdW  Elec       q    Type
                         _______ _______ _______ _____ _____    ______ ____

>  <TORSDO>
F 9

>  <SCORE>
-6.136

>  <RMSD_LB>
5.844

>  <RMSD_UB>
9.756

$$$$
CHEMBL1715643
 OpenBabel10172500313D

 27 28  0  0  0  0  0  0  0  0999 V2000
  137.3830  139.7670  148.7680 C   0  0  0  0  0  2  0  0  0  0  0  0
  138.5400  139.1450  150.8000 N   0  0  0  0  0  0  0  0  0  0  0  0
  138.4810  140.0630  149.7750 C   0  0  0  0  0  0  0  0  0  0  0  0
  139.2140  141.0500  149.7070 O   0  0  0  0  0  0  0  0  0  0  0  0
  137.8860  138.4110  150.8250 H   0  0  0  0  0  0  0  0  0  0  0  0
  139.5410  139.2370  151.8410 C   0  0  0  0  0  2  0  0  0  0  0  0
  143.1340  137.0550  150.7860 C   0  0  0  0  0  0  0  0  0  0  0  0
  141.8920  136.6360  150.3090 C   0  0  0  0  0  3  0  0  0  0  0  0
  140.7240  137.3200  150.6670 C   0  0  0  0  0  3  0  0  0  0  0  0
  140.7790  138.4440  151.5030 C   0  0  0  0  0  0  0  0  0  0  0  0
  142.0310  138.8600  151.9760 C   0  0  0  0  0  3  0  0  0  0  0  0
  143.1950  138.1710  151.6200 C   0  0  0  0  0  3  0  0  0  0  0  0
  145.3290  137.2960  149.9130 C   0  0  0  0  0  1  0  0  0  0  0  0
  144.3380  136.4660  150.5110 O   0  0  0  0  0  0  0  0  0  0  0  0
  137.4690  138.3210  148.2890 C   0  0  0  0  0  2  0  0  0  0  0  0
  136.2460  137.4560  148.5010 C   0  0  0  0  0  0  0  0  0  0  0  0
  136.1410  136.7630  149.7150 C   0  0  0  0  0  3  0  0  0  0  0  0
  135.0200  135.9820  150.0380 C   0  0  0  0  0  0  0  0  0  0  0  0
  133.9540  135.8800  149.1150 C   0  0  0  0  0  0  0  0  0  0  0  0
  134.0320  136.6150  147.9110 C   0  0  0  0  0  0  0  0  0  0  0  0
  135.1760  137.3780  147.6100 C   0  0  0  0  0  3  0  0  0  0  0  0
  134.9230  135.3170  151.2330 O   0  0  0  0  0  0  0  0  0  0  0  0
  135.8820  134.3140  151.5410 C   0  0  0  0  0  1  0  0  0  0  0  0
  132.8380  135.0960  149.2600 O   0  0  0  0  0  0  0  0  0  0  0  0
  132.8560  133.7340  148.8610 C   0  0  0  0  0  1  0  0  0  0  0  0
  133.0950  136.6600  146.9040 O   0  0  0  0  0  0  0  0  0  0  0  0
  133.1540  137.7640  146.0040 C   0  0  0  0  0  1  0  0  0  0  0  0
  1  3  1  0  0  0  0
  2  5  1  0  0  0  0
  2  6  1  0  0  0  0
  3  2  1  0  0  0  0
  4  3  2  0  0  0  0
  7 12  1  0  0  0  0
  8  9  1  0  0  0  0
  8  7  2  0  0  0  0
  9 10  2  0  0  0  0
 10  6  1  0  0  0  0
 10 11  1  0  0  0  0
 12 11  2  0  0  0  0
 13 14  1  0  0  0  0
 14  7  1  0  0  0  0
 15 16  1  0  0  0  0
 15  1  1  0  0  0  0
 16 17  1  0  0  0  0
 17 18  2  0  0  0  0
 18 22  1  0  0  0  0
 19 24  1  0  0  0  0
 19 18  1  0  0  0  0
 20 19  2  0  0  0  0
 21 20  1  0  0  0  0
 21 16  2  0  0  0  0
 22 23  1  0  0  0  0
 25 24  1  0  0  0  0
 26 20  1  0  0  0  0
 27 26  1  0  0  0  0
M  END
>  <MODEL>
7

>  <REMARK>
 VINA RESULT:    -6.024      5.205      9.846
 INTER + INTRA:         -10.056
 INTER:                  -9.015
 INTRA:                  -1.041
 UNBOUND:                -0.863
  Name = CHEMBL1715643
  13 active torsions:
  status: ('A' for Active; 'I' for Inactive)
    1  A    between atoms: C_1  and  O_2
    2  A    between atoms: O_2  and  C_3
    3  A    between atoms: C_6  and  C_7
    4  A    between atoms: C_7  and  N_8
    5  A    between atoms: C_9  and  C_11
    6  A    between atoms: C_11  and  C_12
    7  A    between atoms: C_12  and  C_13
    8  A    between atoms: C_15  and  O_16
    9  A    between atoms: O_16  and  C_17
   10  A    between atoms: C_18  and  O_19
   11  A    between atoms: O_19  and  C_20
   12  A    between atoms: C_21  and  O_22
   13  A    between atoms: O_22  and  C_23
                            x       y       z     vdW  Elec       q    Type
                         _______ _______ _______ _____ _____    ______ ____

>  <TORSDO>
F 9

>  <SCORE>
-6.024

>  <RMSD_LB>
5.205

>  <RMSD_UB>
9.846

$$$$
CHEMBL1715643
 OpenBabel10172500313D

 27 28  0  0  0  0  0  0  0  0999 V2000
  134.0300  137.6310  143.6470 C   0  0  0  0  0  2  0  0  0  0  0  0
  132.7600  136.6740  145.4710 N   0  0  0  0  0  0  0  0  0  0  0  0
  133.3310  137.8280  144.9810 C   0  0  0  0  0  0  0  0  0  0  0  0
  133.2410  138.9180  145.5440 O   0  0  0  0  0  0  0  0  0  0  0  0
  132.8190  135.8470  144.9410 H   0  0  0  0  0  0  0  0  0  0  0  0
  132.0760  136.6510  146.7460 C   0  0  0  0  0  2  0  0  0  0  0  0
  134.4260  134.9100  149.9440 C   0  0  0  0  0  0  0  0  0  0  0  0
  134.5420  136.2680  149.6470 C   0  0  0  0  0  3  0  0  0  0  0  0
  133.8060  136.8320  148.5970 C   0  0  0  0  0  3  0  0  0  0  0  0
  132.9320  136.0480  147.8320 C   0  0  0  0  0  0  0  0  0  0  0  0
  132.8190  134.6850  148.1400 C   0  0  0  0  0  3  0  0  0  0  0  0
  133.5600  134.1240  149.1850 C   0  0  0  0  0  3  0  0  0  0  0  0
  134.4030  134.0850  152.1700 C   0  0  0  0  0  1  0  0  0  0  0  0
  135.0960  134.2490  150.9370 O   0  0  0  0  0  0  0  0  0  0  0  0
  135.0420  136.4930  143.7340 C   0  0  0  0  0  2  0  0  0  0  0  0
  135.8550  136.3950  145.0050 C   0  0  0  0  0  0  0  0  0  0  0  0
  135.8890  135.1570  145.6640 C   0  0  0  0  0  3  0  0  0  0  0  0
  136.6610  134.9420  146.8160 C   0  0  0  0  0  0  0  0  0  0  0  0
  137.4340  136.0020  147.3440 C   0  0  0  0  0  0  0  0  0  0  0  0
  137.4430  137.2370  146.6580 C   0  0  0  0  0  0  0  0  0  0  0  0
  136.6470  137.4250  145.5120 C   0  0  0  0  0  3  0  0  0  0  0  0
  136.6960  133.7250  147.4460 O   0  0  0  0  0  0  0  0  0  0  0  0
  135.9700  132.6400  146.8830 C   0  0  0  0  0  1  0  0  0  0  0  0
  138.1700  135.9620  148.5010 O   0  0  0  0  0  0  0  0  0  0  0  0
  139.5030  135.4750  148.4920 C   0  0  0  0  0  1  0  0  0  0  0  0
  138.1410  138.3730  147.0000 O   0  0  0  0  0  0  0  0  0  0  0  0
  137.4130  139.4230  147.6320 C   0  0  0  0  0  1  0  0  0  0  0  0
  1 15  1  0  0  0  0
  1  3  1  0  0  0  0
  2  6  1  0  0  0  0
  3  2  1  0  0  0  0
  3  4  2  0  0  0  0
  5  2  1  0  0  0  0
  6 10  1  0  0  0  0
  7 14  1  0  0  0  0
  8  7  1  0  0  0  0
  9  8  2  0  0  0  0
 10 11  2  0  0  0  0
 10  9  1  0  0  0  0
 11 12  1  0  0  0  0
 12  7  2  0  0  0  0
 14 13  1  0  0  0  0
 15 16  1  0  0  0  0
 16 21  2  0  0  0  0
 16 17  1  0  0  0  0
 17 18  2  0  0  0  0
 18 19  1  0  0  0  0
 18 22  1  0  0  0  0
 19 24  1  0  0  0  0
 20 26  1  0  0  0  0
 20 19  2  0  0  0  0
 21 20  1  0  0  0  0
 23 22  1  0  0  0  0
 25 24  1  0  0  0  0
 26 27  1  0  0  0  0
M  END
>  <MODEL>
8

>  <REMARK>
 VINA RESULT:    -5.912      5.264      9.293
 INTER + INTRA:          -9.885
 INTER:                  -8.045
 INTRA:                  -1.841
 UNBOUND:                -0.863
  Name = CHEMBL1715643
  13 active torsions:
  status: ('A' for Active; 'I' for Inactive)
    1  A    between atoms: C_1  and  O_2
    2  A    between atoms: O_2  and  C_3
    3  A    between atoms: C_6  and  C_7
    4  A    between atoms: C_7  and  N_8
    5  A    between atoms: C_9  and  C_11
    6  A    between atoms: C_11  and  C_12
    7  A    between atoms: C_12  and  C_13
    8  A    between atoms: C_15  and  O_16
    9  A    between atoms: O_16  and  C_17
   10  A    between atoms: C_18  and  O_19
   11  A    between atoms: O_19  and  C_20
   12  A    between atoms: C_21  and  O_22
   13  A    between atoms: O_22  and  C_23
                            x       y       z     vdW  Elec       q    Type
                         _______ _______ _______ _____ _____    ______ ____

>  <TORSDO>
F 9

>  <SCORE>
-5.912

>  <RMSD_LB>
5.264

>  <RMSD_UB>
9.293

$$$$
CHEMBL1715643
 OpenBabel10172500313D

 27 28  0  0  0  0  0  0  0  0999 V2000
  138.8100  140.6400  149.3240 C   0  0  0  0  0  2  0  0  0  0  0  0
  139.0970  138.7850  150.8510 N   0  0  0  0  0  0  0  0  0  0  0  0
  139.4430  139.2910  149.6180 C   0  0  0  0  0  0  0  0  0  0  0  0
  140.2240  138.7280  148.8510 O   0  0  0  0  0  0  0  0  0  0  0  0
  138.5130  139.3150  151.4410 H   0  0  0  0  0  0  0  0  0  0  0  0
  139.5730  137.4950  151.3010 C   0  0  0  0  0  2  0  0  0  0  0  0
  143.3380  137.6790  153.4390 C   0  0  0  0  0  0  0  0  0  0  0  0
  142.1500  138.0340  154.0770 C   0  0  0  0  0  3  0  0  0  0  0  0
  140.9330  138.0020  153.3850 C   0  0  0  0  0  3  0  0  0  0  0  0
  140.8820  137.6050  152.0420 C   0  0  0  0  0  0  0  0  0  0  0  0
  142.0800  137.2470  151.4080 C   0  0  0  0  0  3  0  0  0  0  0  0
  143.2940  137.2850  152.1010 C   0  0  0  0  0  3  0  0  0  0  0  0
  145.6330  138.2550  153.2400 C   0  0  0  0  0  1  0  0  0  0  0  0
  144.5830  137.6760  154.0070 O   0  0  0  0  0  0  0  0  0  0  0  0
  137.3400  140.4740  148.9520 C   0  0  0  0  0  2  0  0  0  0  0  0
  137.0010  139.3720  147.9730 C   0  0  0  0  0  0  0  0  0  0  0  0
  136.3000  138.2600  148.4600 C   0  0  0  0  0  3  0  0  0  0  0  0
  135.8840  137.2110  147.6250 C   0  0  0  0  0  0  0  0  0  0  0  0
  136.1770  137.2640  146.2440 C   0  0  0  0  0  0  0  0  0  0  0  0
  136.8410  138.4040  145.7370 C   0  0  0  0  0  0  0  0  0  0  0  0
  137.2570  139.4330  146.6030 C   0  0  0  0  0  3  0  0  0  0  0  0
  135.1880  136.1340  148.1100 O   0  0  0  0  0  0  0  0  0  0  0  0
  135.9130  135.0050  148.5820 C   0  0  0  0  0  1  0  0  0  0  0  0
  135.9050  136.2810  145.3260 O   0  0  0  0  0  0  0  0  0  0  0  0
  134.6750  136.2740  144.6190 C   0  0  0  0  0  1  0  0  0  0  0  0
  137.1950  138.6470  144.4300 O   0  0  0  0  0  0  0  0  0  0  0  0
  137.0180  139.9740  143.9400 C   0  0  0  0  0  1  0  0  0  0  0  0
  1  3  1  0  0  0  0
  2  6  1  0  0  0  0
  2  5  1  0  0  0  0
  3  2  1  0  0  0  0
  4  3  2  0  0  0  0
  6 10  1  0  0  0  0
  7 14  1  0  0  0  0
  7  8  1  0  0  0  0
  9  8  2  0  0  0  0
 10  9  1  0  0  0  0
 11 10  2  0  0  0  0
 11 12  1  0  0  0  0
 12  7  2  0  0  0  0
 13 14  1  0  0  0  0
 15  1  1  0  0  0  0
 16 17  1  0  0  0  0
 16 15  1  0  0  0  0
 18 22  1  0  0  0  0
 18 17  2  0  0  0  0
 19 18  1  0  0  0  0
 20 19  2  0  0  0  0
 20 21  1  0  0  0  0
 21 16  2  0  0  0  0
 22 23  1  0  0  0  0
 24 19  1  0  0  0  0
 25 24  1  0  0  0  0
 26 20  1  0  0  0  0
 27 26  1  0  0  0  0
M  END
>  <MODEL>
9

>  <REMARK>
 VINA RESULT:    -5.736      6.045     11.284
 INTER + INTRA:          -9.617
 INTER:                  -8.754
 INTRA:                  -0.863
 UNBOUND:                -0.863
  Name = CHEMBL1715643
  13 active torsions:
  status: ('A' for Active; 'I' for Inactive)
    1  A    between atoms: C_1  and  O_2
    2  A    between atoms: O_2  and  C_3
    3  A    between atoms: C_6  and  C_7
    4  A    between atoms: C_7  and  N_8
    5  A    between atoms: C_9  and  C_11
    6  A    between atoms: C_11  and  C_12
    7  A    between atoms: C_12  and  C_13
    8  A    between atoms: C_15  and  O_16
    9  A    between atoms: O_16  and  C_17
   10  A    between atoms: C_18  and  O_19
   11  A    between atoms: O_19  and  C_20
   12  A    between atoms: C_21  and  O_22
   13  A    between atoms: O_22  and  C_23
                            x       y       z     vdW  Elec       q    Type
                         _______ _______ _______ _____ _____    ______ ____

>  <TORSDO>
F 9

>  <SCORE>
-5.736

>  <RMSD_LB>
6.045

>  <RMSD_UB>
11.284

$$$$
