CHEMBL4471581
 OpenBabel10172500443D

 29 30  0  0  0  0  0  0  0  0999 V2000
  138.8940  137.4860  155.3930 N   0  0  0  0  0  0  0  0  0  0  0  0
  139.3580  138.5330  154.6440 C   0  0  0  0  0  0  0  0  0  0  0  0
  138.7480  139.5860  154.4620 O   0  0  0  0  0  0  0  0  0  0  0  0
  139.4700  136.6980  155.5180 H   0  0  0  0  0  0  0  0  0  0  0  0
  140.7000  138.2890  154.0510 C   0  0  0  0  0  3  0  0  0  0  0  0
  140.8210  137.7830  152.8090 C   0  0  0  0  0  3  0  0  0  0  0  0
  142.1190  137.5250  152.1610 C   0  0  0  0  0  0  0  0  0  0  0  0
  143.3130  137.7310  152.8640 C   0  0  0  0  0  3  0  0  0  0  0  0
  144.5620  137.4840  152.2690 C   0  0  0  0  0  0  0  0  0  0  0  0
  144.6200  137.0110  150.9380 C   0  0  0  0  0  0  0  0  0  0  0  0
  143.4130  136.7730  150.2360 C   0  0  0  0  0  0  0  0  0  0  0  0
  142.1860  137.0230  150.8580 C   0  0  0  0  0  3  0  0  0  0  0  0
  145.7460  137.6820  152.9260 O   0  0  0  0  0  0  0  0  0  0  0  0
  146.1070  136.8330  154.0030 C   0  0  0  0  0  1  0  0  0  0  0  0
  145.7580  136.7370  150.2100 O   0  0  0  0  0  0  0  0  0  0  0  0
  146.4870  135.5480  150.4760 C   0  0  0  0  0  1  0  0  0  0  0  0
  143.5210  136.2970  148.9500 O   0  0  0  0  0  0  0  0  0  0  0  0
  143.0980  134.9590  148.7040 C   0  0  0  0  0  1  0  0  0  0  0  0
  137.5800  137.5010  156.0100 C   0  0  0  0  0  2  0  0  0  0  0  0
  134.8440  134.8200  155.7810 C   0  0  0  0  0  0  0  0  0  0  0  0
  135.7510  135.7600  156.2920 C   0  0  0  0  0  3  0  0  0  0  0  0
  136.6360  136.4580  155.4520 C   0  0  0  0  0  0  0  0  0  0  0  0
  136.5810  136.2080  154.0740 C   0  0  0  0  0  3  0  0  0  0  0  0
  135.6830  135.2720  153.5500 C   0  0  0  0  0  3  0  0  0  0  0  0
  134.8250  134.5820  154.4020 C   0  0  0  0  0  0  0  0  0  0  0  0
  133.8280  134.4820  157.9070 C   0  0  0  0  0  1  0  0  0  0  0  0
  133.9540  134.1010  156.5420 O   0  0  0  0  0  0  0  0  0  0  0  0
  133.9470  133.6600  153.8890 O   0  0  0  0  0  0  0  0  0  0  0  0
  133.0250  133.8180  153.9280 H   0  0  0  0  0  0  0  0  0  0  0  0
  1  4  1  0  0  0  0
  1 19  1  0  0  0  0
  2  1  1  0  0  0  0
  3  2  2  0  0  0  0
  5  2  1  0  0  0  0
  6  5  2  0  0  0  0
  7  6  1  0  0  0  0
  7  8  1  0  0  0  0
  9  8  2  0  0  0  0
  9 13  1  0  0  0  0
 10  9  1  0  0  0  0
 11 12  1  0  0  0  0
 11 10  2  0  0  0  0
 12  7  2  0  0  0  0
 13 14  1  0  0  0  0
 15 16  1  0  0  0  0
 15 10  1  0  0  0  0
 17 11  1  0  0  0  0
 18 17  1  0  0  0  0
 20 21  1  0  0  0  0
 20 27  1  0  0  0  0
 22 19  1  0  0  0  0
 22 21  2  0  0  0  0
 23 22  1  0  0  0  0
 24 23  2  0  0  0  0
 24 25  1  0  0  0  0
 25 20  2  0  0  0  0
 27 26  1  0  0  0  0
 28 29  1  0  0  0  0
 28 25  1  0  0  0  0
M  END
>  <MODEL>
1

>  <REMARK>
 VINA RESULT:    -7.442      0.000      0.000
 INTER + INTRA:         -11.805
 INTER:                 -11.091
 INTRA:                  -0.714
 UNBOUND:                -0.665
  Name = CHEMBL4471581
  13 active torsions:
  status: ('A' for Active; 'I' for Inactive)
    1  A    between atoms: C_1  and  O_2
    2  A    between atoms: O_2  and  C_3
    3  A    between atoms: C_5  and  C_6
    4  A    between atoms: C_6  and  N_7
    5  A    between atoms: C_8  and  C_10
    6  A    between atoms: C_11  and  C_12
    7  A    between atoms: C_14  and  O_15
    8  A    between atoms: O_15  and  C_16
    9  A    between atoms: C_17  and  O_18
   10  A    between atoms: O_18  and  C_19
   11  A    between atoms: C_20  and  O_21
   12  A    between atoms: O_21  and  C_22
   13  A    between atoms: C_26  and  O_27
                            x       y       z     vdW  Elec       q    Type
                         _______ _______ _______ _____ _____    ______ ____

>  <TORSDO>
F 9

>  <SCORE>
-7.442

>  <RMSD_LB>
0.000

>  <RMSD_UB>
0.000

$$$$
CHEMBL4471581
 OpenBabel10172500443D

 29 30  0  0  0  0  0  0  0  0999 V2000
  138.9480  137.5550  155.2500 N   0  0  0  0  0  0  0  0  0  0  0  0
  139.4400  138.5360  154.4310 C   0  0  0  0  0  0  0  0  0  0  0  0
  138.8540  139.5850  154.1680 O   0  0  0  0  0  0  0  0  0  0  0  0
  139.5060  136.7660  155.4360 H   0  0  0  0  0  0  0  0  0  0  0  0
  140.7800  138.2200  153.8680 C   0  0  0  0  0  3  0  0  0  0  0  0
  140.9020  137.7000  152.6330 C   0  0  0  0  0  3  0  0  0  0  0  0
  142.1990  137.3730  152.0140 C   0  0  0  0  0  0  0  0  0  0  0  0
  142.2550  136.9050  150.6940 C   0  0  0  0  0  3  0  0  0  0  0  0
  143.4810  136.5950  150.0810 C   0  0  0  0  0  0  0  0  0  0  0  0
  144.6840  136.7640  150.8030 C   0  0  0  0  0  0  0  0  0  0  0  0
  144.6320  137.2650  152.1260 C   0  0  0  0  0  0  0  0  0  0  0  0
  143.3970  137.5710  152.7060 C   0  0  0  0  0  3  0  0  0  0  0  0
  143.5670  136.1300  148.7980 O   0  0  0  0  0  0  0  0  0  0  0  0
  143.2890  134.7670  148.5200 C   0  0  0  0  0  1  0  0  0  0  0  0
  145.9590  136.4910  150.3540 O   0  0  0  0  0  0  0  0  0  0  0  0
  146.6360  137.4490  149.5530 C   0  0  0  0  0  1  0  0  0  0  0  0
  145.8310  137.4280  152.7810 O   0  0  0  0  0  0  0  0  0  0  0  0
  146.0370  136.6760  153.9750 C   0  0  0  0  0  1  0  0  0  0  0  0
  137.6300  137.6430  155.8530 C   0  0  0  0  0  2  0  0  0  0  0  0
  134.8880  134.9590  155.7830 C   0  0  0  0  0  0  0  0  0  0  0  0
  135.8160  135.9060  156.2400 C   0  0  0  0  0  3  0  0  0  0  0  0
  136.6630  136.5920  155.3520 C   0  0  0  0  0  0  0  0  0  0  0  0
  136.5470  136.3230  153.9810 C   0  0  0  0  0  3  0  0  0  0  0  0
  135.6270  135.3800  153.5110 C   0  0  0  0  0  3  0  0  0  0  0  0
  134.8080  134.7020  154.4090 C   0  0  0  0  0  0  0  0  0  0  0  0
  134.0170  134.6070  157.9700 C   0  0  0  0  0  1  0  0  0  0  0  0
  134.0330  134.2500  156.5930 O   0  0  0  0  0  0  0  0  0  0  0  0
  133.9090  133.7720  153.9490 O   0  0  0  0  0  0  0  0  0  0  0  0
  134.1000  132.8580  154.0250 H   0  0  0  0  0  0  0  0  0  0  0  0
  1  4  1  0  0  0  0
  1 19  1  0  0  0  0
  2  1  1  0  0  0  0
  3  2  2  0  0  0  0
  5  2  1  0  0  0  0
  6  5  2  0  0  0  0
  7  6  1  0  0  0  0
  7 12  1  0  0  0  0
  8  7  2  0  0  0  0
  9  8  1  0  0  0  0
  9 10  2  0  0  0  0
 10 11  1  0  0  0  0
 11 12  2  0  0  0  0
 11 17  1  0  0  0  0
 13  9  1  0  0  0  0
 14 13  1  0  0  0  0
 15 10  1  0  0  0  0
 16 15  1  0  0  0  0
 17 18  1  0  0  0  0
 20 21  1  0  0  0  0
 20 27  1  0  0  0  0
 22 19  1  0  0  0  0
 22 21  2  0  0  0  0
 23 22  1  0  0  0  0
 24 23  2  0  0  0  0
 24 25  1  0  0  0  0
 25 20  2  0  0  0  0
 27 26  1  0  0  0  0
 28 29  1  0  0  0  0
 28 25  1  0  0  0  0
M  END
>  <MODEL>
2

>  <REMARK>
 VINA RESULT:    -7.347      0.464      2.405
 INTER + INTRA:         -11.663
 INTER:                 -11.000
 INTRA:                  -0.663
 UNBOUND:                -0.665
  Name = CHEMBL4471581
  13 active torsions:
  status: ('A' for Active; 'I' for Inactive)
    1  A    between atoms: C_1  and  O_2
    2  A    between atoms: O_2  and  C_3
    3  A    between atoms: C_5  and  C_6
    4  A    between atoms: C_6  and  N_7
    5  A    between atoms: C_8  and  C_10
    6  A    between atoms: C_11  and  C_12
    7  A    between atoms: C_14  and  O_15
    8  A    between atoms: O_15  and  C_16
    9  A    between atoms: C_17  and  O_18
   10  A    between atoms: O_18  and  C_19
   11  A    between atoms: C_20  and  O_21
   12  A    between atoms: O_21  and  C_22
   13  A    between atoms: C_26  and  O_27
                            x       y       z     vdW  Elec       q    Type
                         _______ _______ _______ _____ _____    ______ ____

>  <TORSDO>
F 9

>  <SCORE>
-7.347

>  <RMSD_LB>
0.464

>  <RMSD_UB>
2.405

$$$$
CHEMBL4471581
 OpenBabel10172500443D

 29 30  0  0  0  0  0  0  0  0999 V2000
  143.4180  138.6600  154.2760 N   0  0  0  0  0  0  0  0  0  0  0  0
  142.2770  139.0320  154.9340 C   0  0  0  0  0  0  0  0  0  0  0  0
  142.1870  140.0080  155.6780 O   0  0  0  0  0  0  0  0  0  0  0  0
  143.3860  137.8870  153.6670 H   0  0  0  0  0  0  0  0  0  0  0  0
  141.1210  138.1350  154.6690 C   0  0  0  0  0  3  0  0  0  0  0  0
  139.8710  138.5060  155.0050 C   0  0  0  0  0  3  0  0  0  0  0  0
  138.6830  137.6690  154.7620 C   0  0  0  0  0  0  0  0  0  0  0  0
  138.0290  137.0430  155.8310 C   0  0  0  0  0  3  0  0  0  0  0  0
  136.8900  136.2470  155.6240 C   0  0  0  0  0  0  0  0  0  0  0  0
  136.3850  136.0780  154.3150 C   0  0  0  0  0  0  0  0  0  0  0  0
  137.0270  136.7340  153.2370 C   0  0  0  0  0  0  0  0  0  0  0  0
  138.1550  137.5250  153.4760 C   0  0  0  0  0  3  0  0  0  0  0  0
  136.2340  135.6170  156.6470 O   0  0  0  0  0  0  0  0  0  0  0  0
  136.7300  135.7160  157.9710 C   0  0  0  0  0  1  0  0  0  0  0  0
  135.2940  135.3210  153.9440 O   0  0  0  0  0  0  0  0  0  0  0  0
  133.9860  135.8190  154.1840 C   0  0  0  0  0  1  0  0  0  0  0  0
  136.4880  136.5520  151.9840 O   0  0  0  0  0  0  0  0  0  0  0  0
  137.1980  137.0980  150.8750 C   0  0  0  0  0  1  0  0  0  0  0  0
  144.6730  139.3700  154.4450 C   0  0  0  0  0  2  0  0  0  0  0  0
  144.7180  140.9710  150.9570 C   0  0  0  0  0  0  0  0  0  0  0  0
  144.4460  140.0970  152.0210 C   0  0  0  0  0  3  0  0  0  0  0  0
  145.0070  140.2950  153.2940 C   0  0  0  0  0  0  0  0  0  0  0  0
  145.8370  141.4070  153.4900 C   0  0  0  0  0  3  0  0  0  0  0  0
  146.1180  142.2860  152.4380 C   0  0  0  0  0  3  0  0  0  0  0  0
  145.5630  142.0630  151.1810 C   0  0  0  0  0  0  0  0  0  0  0  0
  143.0980  139.9590  149.5360 C   0  0  0  0  0  1  0  0  0  0  0  0
  144.2080  140.8370  149.6880 O   0  0  0  0  0  0  0  0  0  0  0  0
  145.8430  142.9220  150.1470 O   0  0  0  0  0  0  0  0  0  0  0  0
  146.3500  143.6940  150.3040 H   0  0  0  0  0  0  0  0  0  0  0  0
  1 19  1  0  0  0  0
  1  2  1  0  0  0  0
  2  3  2  0  0  0  0
  4  1  1  0  0  0  0
  5  2  1  0  0  0  0
  5  6  2  0  0  0  0
  7  6  1  0  0  0  0
  7  8  1  0  0  0  0
  9  8  2  0  0  0  0
  9 13  1  0  0  0  0
 10  9  1  0  0  0  0
 11 12  1  0  0  0  0
 11 10  2  0  0  0  0
 12  7  2  0  0  0  0
 13 14  1  0  0  0  0
 15 16  1  0  0  0  0
 15 10  1  0  0  0  0
 17 11  1  0  0  0  0
 18 17  1  0  0  0  0
 20 25  2  0  0  0  0
 20 21  1  0  0  0  0
 21 22  2  0  0  0  0
 22 23  1  0  0  0  0
 22 19  1  0  0  0  0
 24 23  2  0  0  0  0
 25 24  1  0  0  0  0
 26 27  1  0  0  0  0
 27 20  1  0  0  0  0
 28 29  1  0  0  0  0
 28 25  1  0  0  0  0
M  END
>  <MODEL>
3

>  <REMARK>
 VINA RESULT:    -7.298      3.138      9.508
 INTER + INTRA:         -11.589
 INTER:                 -10.948
 INTRA:                  -0.641
 UNBOUND:                -0.665
  Name = CHEMBL4471581
  13 active torsions:
  status: ('A' for Active; 'I' for Inactive)
    1  A    between atoms: C_1  and  O_2
    2  A    between atoms: O_2  and  C_3
    3  A    between atoms: C_5  and  C_6
    4  A    between atoms: C_6  and  N_7
    5  A    between atoms: C_8  and  C_10
    6  A    between atoms: C_11  and  C_12
    7  A    between atoms: C_14  and  O_15
    8  A    between atoms: O_15  and  C_16
    9  A    between atoms: C_17  and  O_18
   10  A    between atoms: O_18  and  C_19
   11  A    between atoms: C_20  and  O_21
   12  A    between atoms: O_21  and  C_22
   13  A    between atoms: C_26  and  O_27
                            x       y       z     vdW  Elec       q    Type
                         _______ _______ _______ _____ _____    ______ ____

>  <TORSDO>
F 9

>  <SCORE>
-7.298

>  <RMSD_LB>
3.138

>  <RMSD_UB>
9.508

$$$$
CHEMBL4471581
 OpenBabel10172500443D

 29 30  0  0  0  0  0  0  0  0999 V2000
  142.9130  139.9040  151.2170 N   0  0  0  0  0  0  0  0  0  0  0  0
  141.8320  139.7500  150.3900 C   0  0  0  0  0  0  0  0  0  0  0  0
  141.8300  140.0110  149.1880 O   0  0  0  0  0  0  0  0  0  0  0  0
  142.8360  139.6290  152.1590 H   0  0  0  0  0  0  0  0  0  0  0  0
  140.6270  139.2240  151.0840 C   0  0  0  0  0  3  0  0  0  0  0  0
  140.6360  139.0140  152.4140 C   0  0  0  0  0  3  0  0  0  0  0  0
  139.4740  138.5040  153.1630 C   0  0  0  0  0  0  0  0  0  0  0  0
  138.4690  137.7840  152.5040 C   0  0  0  0  0  3  0  0  0  0  0  0
  137.3560  137.2810  153.1990 C   0  0  0  0  0  0  0  0  0  0  0  0
  137.2480  137.4950  154.5920 C   0  0  0  0  0  0  0  0  0  0  0  0
  138.2780  138.1960  155.2650 C   0  0  0  0  0  0  0  0  0  0  0  0
  139.3760  138.6790  154.5460 C   0  0  0  0  0  3  0  0  0  0  0  0
  136.3550  136.5810  152.5820 O   0  0  0  0  0  0  0  0  0  0  0  0
  136.6100  135.9130  151.3580 C   0  0  0  0  0  1  0  0  0  0  0  0
  136.2180  137.0840  155.4100 O   0  0  0  0  0  0  0  0  0  0  0  0
  136.1810  135.7380  155.8630 C   0  0  0  0  0  1  0  0  0  0  0  0
  138.1350  138.3650  156.6230 O   0  0  0  0  0  0  0  0  0  0  0  0
  139.0190  137.6410  157.4740 C   0  0  0  0  0  1  0  0  0  0  0  0
  144.1700  140.4590  150.7480 C   0  0  0  0  0  2  0  0  0  0  0  0
  146.3110  140.2170  153.9240 C   0  0  0  0  0  0  0  0  0  0  0  0
  145.3940  139.9120  152.9070 C   0  0  0  0  0  3  0  0  0  0  0  0
  145.1290  140.8160  151.8630 C   0  0  0  0  0  0  0  0  0  0  0  0
  145.8240  142.0330  151.8450 C   0  0  0  0  0  3  0  0  0  0  0  0
  146.7400  142.3510  152.8540 C   0  0  0  0  0  3  0  0  0  0  0  0
  146.9760  141.4480  153.8860 C   0  0  0  0  0  0  0  0  0  0  0  0
  146.3640  137.9970  154.7830 C   0  0  0  0  0  1  0  0  0  0  0  0
  146.6150  139.3850  154.9740 O   0  0  0  0  0  0  0  0  0  0  0  0
  147.8700  141.7610  154.8790 O   0  0  0  0  0  0  0  0  0  0  0  0
  147.9780  141.1860  155.6110 H   0  0  0  0  0  0  0  0  0  0  0  0
  1  4  1  0  0  0  0
  2  5  1  0  0  0  0
  2  1  1  0  0  0  0
  3  2  2  0  0  0  0
  5  6  2  0  0  0  0
  6  7  1  0  0  0  0
  7 12  1  0  0  0  0
  8  7  2  0  0  0  0
  8  9  1  0  0  0  0
  9 10  2  0  0  0  0
 10 11  1  0  0  0  0
 10 15  1  0  0  0  0
 11 17  1  0  0  0  0
 12 11  2  0  0  0  0
 13  9  1  0  0  0  0
 14 13  1  0  0  0  0
 15 16  1  0  0  0  0
 17 18  1  0  0  0  0
 19  1  1  0  0  0  0
 19 22  1  0  0  0  0
 20 27  1  0  0  0  0
 21 20  2  0  0  0  0
 22 21  1  0  0  0  0
 23 22  2  0  0  0  0
 23 24  1  0  0  0  0
 24 25  2  0  0  0  0
 25 20  1  0  0  0  0
 25 28  1  0  0  0  0
 26 27  1  0  0  0  0
 28 29  1  0  0  0  0
M  END
>  <MODEL>
4

>  <REMARK>
 VINA RESULT:    -7.284      3.227      9.759
 INTER + INTRA:         -11.568
 INTER:                 -10.883
 INTRA:                  -0.685
 UNBOUND:                -0.665
  Name = CHEMBL4471581
  13 active torsions:
  status: ('A' for Active; 'I' for Inactive)
    1  A    between atoms: C_1  and  O_2
    2  A    between atoms: O_2  and  C_3
    3  A    between atoms: C_5  and  C_6
    4  A    between atoms: C_6  and  N_7
    5  A    between atoms: C_8  and  C_10
    6  A    between atoms: C_11  and  C_12
    7  A    between atoms: C_14  and  O_15
    8  A    between atoms: O_15  and  C_16
    9  A    between atoms: C_17  and  O_18
   10  A    between atoms: O_18  and  C_19
   11  A    between atoms: C_20  and  O_21
   12  A    between atoms: O_21  and  C_22
   13  A    between atoms: C_26  and  O_27
                            x       y       z     vdW  Elec       q    Type
                         _______ _______ _______ _____ _____    ______ ____

>  <TORSDO>
F 9

>  <SCORE>
-7.284

>  <RMSD_LB>
3.227

>  <RMSD_UB>
9.759

$$$$
CHEMBL4471581
 OpenBabel10172500443D

 29 30  0  0  0  0  0  0  0  0999 V2000
  143.4640  138.6830  154.5180 N   0  0  0  0  0  0  0  0  0  0  0  0
  142.3050  139.1040  155.1140 C   0  0  0  0  0  0  0  0  0  0  0  0
  142.2000  140.1250  155.7930 O   0  0  0  0  0  0  0  0  0  0  0  0
  143.4440  137.8740  153.9570 H   0  0  0  0  0  0  0  0  0  0  0  0
  141.1500  138.2010  154.8670 C   0  0  0  0  0  3  0  0  0  0  0  0
  139.8870  138.6490  154.9950 C   0  0  0  0  0  3  0  0  0  0  0  0
  138.7000  137.8090  154.7550 C   0  0  0  0  0  0  0  0  0  0  0  0
  138.2520  137.5740  153.4490 C   0  0  0  0  0  3  0  0  0  0  0  0
  137.1270  136.7700  153.1970 C   0  0  0  0  0  0  0  0  0  0  0  0
  136.4360  136.1790  154.2780 C   0  0  0  0  0  0  0  0  0  0  0  0
  136.9050  136.3910  155.5970 C   0  0  0  0  0  0  0  0  0  0  0  0
  138.0310  137.1910  155.8150 C   0  0  0  0  0  3  0  0  0  0  0  0
  136.6620  136.5280  151.9330 O   0  0  0  0  0  0  0  0  0  0  0  0
  137.2100  137.2320  150.8310 C   0  0  0  0  0  1  0  0  0  0  0  0
  135.3130  135.3830  154.2000 O   0  0  0  0  0  0  0  0  0  0  0  0
  134.0490  135.9820  153.9510 C   0  0  0  0  0  1  0  0  0  0  0  0
  136.2070  135.7810  156.6140 O   0  0  0  0  0  0  0  0  0  0  0  0
  136.8400  135.6940  157.8880 C   0  0  0  0  0  1  0  0  0  0  0  0
  144.7190  139.3930  154.6850 C   0  0  0  0  0  2  0  0  0  0  0  0
  144.7390  140.9960  151.1980 C   0  0  0  0  0  0  0  0  0  0  0  0
  144.4640  140.1300  152.2660 C   0  0  0  0  0  3  0  0  0  0  0  0
  145.0570  140.3080  153.5280 C   0  0  0  0  0  0  0  0  0  0  0  0
  145.9240  141.3950  153.7080 C   0  0  0  0  0  3  0  0  0  0  0  0
  146.2100  142.2660  152.6510 C   0  0  0  0  0  3  0  0  0  0  0  0
  145.6220  142.0620  151.4050 C   0  0  0  0  0  0  0  0  0  0  0  0
  143.1470  139.9340  149.7830 C   0  0  0  0  0  1  0  0  0  0  0  0
  144.1990  140.8790  149.9400 O   0  0  0  0  0  0  0  0  0  0  0  0
  145.9060  142.9140  150.3670 O   0  0  0  0  0  0  0  0  0  0  0  0
  145.6330  143.8090  150.4070 H   0  0  0  0  0  0  0  0  0  0  0  0
  1 19  1  0  0  0  0
  1  2  1  0  0  0  0
  2  3  2  0  0  0  0
  4  1  1  0  0  0  0
  5  6  2  0  0  0  0
  5  2  1  0  0  0  0
  7  6  1  0  0  0  0
  7 12  1  0  0  0  0
  8  7  2  0  0  0  0
  9  8  1  0  0  0  0
  9 10  2  0  0  0  0
 10 11  1  0  0  0  0
 11 12  2  0  0  0  0
 11 17  1  0  0  0  0
 13  9  1  0  0  0  0
 14 13  1  0  0  0  0
 15 10  1  0  0  0  0
 16 15  1  0  0  0  0
 17 18  1  0  0  0  0
 20 25  2  0  0  0  0
 20 21  1  0  0  0  0
 21 22  2  0  0  0  0
 22 23  1  0  0  0  0
 22 19  1  0  0  0  0
 24 23  2  0  0  0  0
 25 24  1  0  0  0  0
 26 27  1  0  0  0  0
 27 20  1  0  0  0  0
 28 29  1  0  0  0  0
 28 25  1  0  0  0  0
M  END
>  <MODEL>
5

>  <REMARK>
 VINA RESULT:    -7.234      3.162      9.699
 INTER + INTRA:         -11.494
 INTER:                 -10.829
 INTRA:                  -0.665
 UNBOUND:                -0.665
  Name = CHEMBL4471581
  13 active torsions:
  status: ('A' for Active; 'I' for Inactive)
    1  A    between atoms: C_1  and  O_2
    2  A    between atoms: O_2  and  C_3
    3  A    between atoms: C_5  and  C_6
    4  A    between atoms: C_6  and  N_7
    5  A    between atoms: C_8  and  C_10
    6  A    between atoms: C_11  and  C_12
    7  A    between atoms: C_14  and  O_15
    8  A    between atoms: O_15  and  C_16
    9  A    between atoms: C_17  and  O_18
   10  A    between atoms: O_18  and  C_19
   11  A    between atoms: C_20  and  O_21
   12  A    between atoms: O_21  and  C_22
   13  A    between atoms: C_26  and  O_27
                            x       y       z     vdW  Elec       q    Type
                         _______ _______ _______ _____ _____    ______ ____

>  <TORSDO>
F 9

>  <SCORE>
-7.234

>  <RMSD_LB>
3.162

>  <RMSD_UB>
9.699

$$$$
CHEMBL4471581
 OpenBabel10172500443D

 29 30  0  0  0  0  0  0  0  0999 V2000
  143.5820  140.4410  151.2620 N   0  0  0  0  0  0  0  0  0  0  0  0
  142.8510  139.7120  150.3620 C   0  0  0  0  0  0  0  0  0  0  0  0
  143.2130  139.4560  149.2140 O   0  0  0  0  0  0  0  0  0  0  0  0
  143.2310  140.5610  152.1740 H   0  0  0  0  0  0  0  0  0  0  0  0
  141.5490  139.2390  150.9010 C   0  0  0  0  0  3  0  0  0  0  0  0
  141.4260  138.8890  152.1950 C   0  0  0  0  0  3  0  0  0  0  0  0
  140.1630  138.4210  152.7930 C   0  0  0  0  0  0  0  0  0  0  0  0
  139.9070  138.6280  154.1550 C   0  0  0  0  0  3  0  0  0  0  0  0
  138.7070  138.1990  154.7460 C   0  0  0  0  0  0  0  0  0  0  0  0
  137.7320  137.5520  153.9530 C   0  0  0  0  0  0  0  0  0  0  0  0
  137.9760  137.3690  152.5700 C   0  0  0  0  0  0  0  0  0  0  0  0
  139.1780  137.8130  152.0110 C   0  0  0  0  0  3  0  0  0  0  0  0
  138.4310  138.3790  156.0740 O   0  0  0  0  0  0  0  0  0  0  0  0
  139.0010  137.5100  157.0380 C   0  0  0  0  0  1  0  0  0  0  0  0
  136.5180  137.0590  154.3810 O   0  0  0  0  0  0  0  0  0  0  0  0
  136.4600  135.7750  154.9860 C   0  0  0  0  0  1  0  0  0  0  0  0
  136.9900  136.7490  151.8380 O   0  0  0  0  0  0  0  0  0  0  0  0
  137.2700  136.4540  150.4720 C   0  0  0  0  0  1  0  0  0  0  0  0
  144.8560  141.0420  150.9140 C   0  0  0  0  0  2  0  0  0  0  0  0
  147.5690  139.6910  153.2690 C   0  0  0  0  0  0  0  0  0  0  0  0
  146.5840  139.7670  152.2730 C   0  0  0  0  0  3  0  0  0  0  0  0
  145.8870  140.9610  152.0200 C   0  0  0  0  0  0  0  0  0  0  0  0
  146.2130  142.0950  152.7770 C   0  0  0  0  0  3  0  0  0  0  0  0
  147.1920  142.0340  153.7740 C   0  0  0  0  0  3  0  0  0  0  0  0
  147.8610  140.8370  154.0180 C   0  0  0  0  0  0  0  0  0  0  0  0
  147.6200  137.5720  154.3520 C   0  0  0  0  0  1  0  0  0  0  0  0
  148.2860  138.5590  153.5720 O   0  0  0  0  0  0  0  0  0  0  0  0
  148.8180  140.7750  155.0000 O   0  0  0  0  0  0  0  0  0  0  0  0
  149.7080  140.5910  154.7750 H   0  0  0  0  0  0  0  0  0  0  0  0
  1  4  1  0  0  0  0
  2  5  1  0  0  0  0
  2  1  1  0  0  0  0
  3  2  2  0  0  0  0
  5  6  2  0  0  0  0
  6  7  1  0  0  0  0
  7  8  1  0  0  0  0
  8  9  2  0  0  0  0
  9 13  1  0  0  0  0
 10 15  1  0  0  0  0
 10  9  1  0  0  0  0
 11 10  2  0  0  0  0
 12 11  1  0  0  0  0
 12  7  2  0  0  0  0
 13 14  1  0  0  0  0
 15 16  1  0  0  0  0
 17 11  1  0  0  0  0
 18 17  1  0  0  0  0
 19  1  1  0  0  0  0
 19 22  1  0  0  0  0
 20 27  1  0  0  0  0
 20 25  1  0  0  0  0
 21 20  2  0  0  0  0
 22 21  1  0  0  0  0
 22 23  2  0  0  0  0
 23 24  1  0  0  0  0
 24 25  2  0  0  0  0
 25 28  1  0  0  0  0
 27 26  1  0  0  0  0
 29 28  1  0  0  0  0
M  END
>  <MODEL>
6

>  <REMARK>
 VINA RESULT:    -7.192      3.286      9.678
 INTER + INTRA:         -11.430
 INTER:                 -10.765
 INTRA:                  -0.665
 UNBOUND:                -0.665
  Name = CHEMBL4471581
  13 active torsions:
  status: ('A' for Active; 'I' for Inactive)
    1  A    between atoms: C_1  and  O_2
    2  A    between atoms: O_2  and  C_3
    3  A    between atoms: C_5  and  C_6
    4  A    between atoms: C_6  and  N_7
    5  A    between atoms: C_8  and  C_10
    6  A    between atoms: C_11  and  C_12
    7  A    between atoms: C_14  and  O_15
    8  A    between atoms: O_15  and  C_16
    9  A    between atoms: C_17  and  O_18
   10  A    between atoms: O_18  and  C_19
   11  A    between atoms: C_20  and  O_21
   12  A    between atoms: O_21  and  C_22
   13  A    between atoms: C_26  and  O_27
                            x       y       z     vdW  Elec       q    Type
                         _______ _______ _______ _____ _____    ______ ____

>  <TORSDO>
F 9

>  <SCORE>
-7.192

>  <RMSD_LB>
3.286

>  <RMSD_UB>
9.678

$$$$
CHEMBL4471581
 OpenBabel10172500443D

 29 30  0  0  0  0  0  0  0  0999 V2000
  138.3590  137.4370  154.8060 N   0  0  0  0  0  0  0  0  0  0  0  0
  139.0060  138.4350  154.1290 C   0  0  0  0  0  0  0  0  0  0  0  0
  139.0740  139.6050  154.5060 O   0  0  0  0  0  0  0  0  0  0  0  0
  138.3930  136.5200  154.4490 H   0  0  0  0  0  0  0  0  0  0  0  0
  139.6380  137.9790  152.8630 C   0  0  0  0  0  3  0  0  0  0  0  0
  140.9710  137.8000  152.7860 C   0  0  0  0  0  3  0  0  0  0  0  0
  141.6590  137.3420  151.5660 C   0  0  0  0  0  0  0  0  0  0  0  0
  143.0400  137.1100  151.5780 C   0  0  0  0  0  3  0  0  0  0  0  0
  143.7160  136.6650  150.4290 C   0  0  0  0  0  0  0  0  0  0  0  0
  142.9910  136.4380  149.2370 C   0  0  0  0  0  0  0  0  0  0  0  0
  141.5900  136.6430  149.2320 C   0  0  0  0  0  0  0  0  0  0  0  0
  140.9460  137.0790  150.3930 C   0  0  0  0  0  3  0  0  0  0  0  0
  145.0650  136.4370  150.4080 O   0  0  0  0  0  0  0  0  0  0  0  0
  145.9590  137.5100  150.1610 C   0  0  0  0  0  1  0  0  0  0  0  0
  143.5050  136.0190  148.0290 O   0  0  0  0  0  0  0  0  0  0  0  0
  143.8420  134.6510  147.8500 C   0  0  0  0  0  1  0  0  0  0  0  0
  140.9270  136.3920  148.0520 O   0  0  0  0  0  0  0  0  0  0  0  0
  140.3220  137.4980  147.3880 C   0  0  0  0  0  1  0  0  0  0  0  0
  137.6280  137.6860  156.0350 C   0  0  0  0  0  2  0  0  0  0  0  0
  134.7250  135.2320  155.5090 C   0  0  0  0  0  0  0  0  0  0  0  0
  135.7110  136.2010  155.2740 C   0  0  0  0  0  3  0  0  0  0  0  0
  136.5380  136.6710  156.3090 C   0  0  0  0  0  0  0  0  0  0  0  0
  136.3710  136.1310  157.5920 C   0  0  0  0  0  3  0  0  0  0  0  0
  135.3900  135.1650  157.8410 C   0  0  0  0  0  3  0  0  0  0  0  0
  134.5720  134.7240  156.8040 C   0  0  0  0  0  0  0  0  0  0  0  0
  133.9350  135.3460  153.2660 C   0  0  0  0  0  1  0  0  0  0  0  0
  133.8800  134.7300  154.5480 O   0  0  0  0  0  0  0  0  0  0  0  0
  133.6060  133.7800  157.0490 O   0  0  0  0  0  0  0  0  0  0  0  0
  133.2030  133.7310  157.8930 H   0  0  0  0  0  0  0  0  0  0  0  0
  1 19  1  0  0  0  0
  2  3  2  0  0  0  0
  2  1  1  0  0  0  0
  4  1  1  0  0  0  0
  5  2  1  0  0  0  0
  6  5  2  0  0  0  0
  7  8  1  0  0  0  0
  7  6  1  0  0  0  0
  9  8  2  0  0  0  0
 10  9  1  0  0  0  0
 11 10  2  0  0  0  0
 11 12  1  0  0  0  0
 12  7  2  0  0  0  0
 13  9  1  0  0  0  0
 14 13  1  0  0  0  0
 15 10  1  0  0  0  0
 16 15  1  0  0  0  0
 17 11  1  0  0  0  0
 18 17  1  0  0  0  0
 19 22  1  0  0  0  0
 20 25  1  0  0  0  0
 21 20  2  0  0  0  0
 21 22  1  0  0  0  0
 22 23  2  0  0  0  0
 23 24  1  0  0  0  0
 25 28  1  0  0  0  0
 25 24  2  0  0  0  0
 26 27  1  0  0  0  0
 27 20  1  0  0  0  0
 28 29  1  0  0  0  0
M  END
>  <MODEL>
7

>  <REMARK>
 VINA RESULT:    -7.053      1.426      2.518
 INTER + INTRA:         -11.223
 INTER:                 -10.637
 INTRA:                  -0.586
 UNBOUND:                -0.665
  Name = CHEMBL4471581
  13 active torsions:
  status: ('A' for Active; 'I' for Inactive)
    1  A    between atoms: C_1  and  O_2
    2  A    between atoms: O_2  and  C_3
    3  A    between atoms: C_5  and  C_6
    4  A    between atoms: C_6  and  N_7
    5  A    between atoms: C_8  and  C_10
    6  A    between atoms: C_11  and  C_12
    7  A    between atoms: C_14  and  O_15
    8  A    between atoms: O_15  and  C_16
    9  A    between atoms: C_17  and  O_18
   10  A    between atoms: O_18  and  C_19
   11  A    between atoms: C_20  and  O_21
   12  A    between atoms: O_21  and  C_22
   13  A    between atoms: C_26  and  O_27
                            x       y       z     vdW  Elec       q    Type
                         _______ _______ _______ _____ _____    ______ ____

>  <TORSDO>
F 9

>  <SCORE>
-7.053

>  <RMSD_LB>
1.426

>  <RMSD_UB>
2.518

$$$$
CHEMBL4471581
 OpenBabel10172500443D

 29 30  0  0  0  0  0  0  0  0999 V2000
  138.2300  137.6140  154.4980 N   0  0  0  0  0  0  0  0  0  0  0  0
  139.1500  138.5110  154.0230 C   0  0  0  0  0  0  0  0  0  0  0  0
  139.4380  139.5730  154.5730 O   0  0  0  0  0  0  0  0  0  0  0  0
  138.0950  136.7690  154.0120 H   0  0  0  0  0  0  0  0  0  0  0  0
  139.7920  138.0830  152.7520 C   0  0  0  0  0  3  0  0  0  0  0  0
  141.0830  137.6990  152.7290 C   0  0  0  0  0  3  0  0  0  0  0  0
  141.7760  137.2560  151.5070 C   0  0  0  0  0  0  0  0  0  0  0  0
  141.0470  136.9680  150.3460 C   0  0  0  0  0  3  0  0  0  0  0  0
  141.6870  136.5520  149.1660 C   0  0  0  0  0  0  0  0  0  0  0  0
  143.0950  136.4280  149.1430 C   0  0  0  0  0  0  0  0  0  0  0  0
  143.8360  136.7480  150.3060 C   0  0  0  0  0  0  0  0  0  0  0  0
  143.1700  137.1660  151.4620 C   0  0  0  0  0  3  0  0  0  0  0  0
  141.0020  136.2560  148.0190 O   0  0  0  0  0  0  0  0  0  0  0  0
  140.6210  137.2970  147.1350 C   0  0  0  0  0  1  0  0  0  0  0  0
  143.8680  136.0190  148.0770 O   0  0  0  0  0  0  0  0  0  0  0  0
  143.9460  134.6360  147.7620 C   0  0  0  0  0  1  0  0  0  0  0  0
  145.2050  136.6280  150.2290 O   0  0  0  0  0  0  0  0  0  0  0  0
  145.9780  137.8210  150.3240 C   0  0  0  0  0  1  0  0  0  0  0  0
  137.4490  137.8700  155.6940 C   0  0  0  0  0  2  0  0  0  0  0  0
  134.7510  135.1730  155.2790 C   0  0  0  0  0  0  0  0  0  0  0  0
  135.6510  136.2130  155.0030 C   0  0  0  0  0  3  0  0  0  0  0  0
  136.4500  136.7780  156.0120 C   0  0  0  0  0  0  0  0  0  0  0  0
  136.3440  136.2630  157.3120 C   0  0  0  0  0  3  0  0  0  0  0  0
  135.4490  135.2280  157.6020 C   0  0  0  0  0  3  0  0  0  0  0  0
  134.6570  134.6920  156.5900 C   0  0  0  0  0  0  0  0  0  0  0  0
  133.7810  135.2600  153.1070 C   0  0  0  0  0  1  0  0  0  0  0  0
  133.9380  134.5770  154.3450 O   0  0  0  0  0  0  0  0  0  0  0  0
  133.7750  133.6800  156.8750 O   0  0  0  0  0  0  0  0  0  0  0  0
  132.9120  133.6940  156.5100 H   0  0  0  0  0  0  0  0  0  0  0  0
  1 19  1  0  0  0  0
  2  1  1  0  0  0  0
  2  3  2  0  0  0  0
  4  1  1  0  0  0  0
  5  2  1  0  0  0  0
  6  5  2  0  0  0  0
  7  6  1  0  0  0  0
  8  7  2  0  0  0  0
  9  8  1  0  0  0  0
 10  9  2  0  0  0  0
 10 11  1  0  0  0  0
 11 12  2  0  0  0  0
 12  7  1  0  0  0  0
 13  9  1  0  0  0  0
 14 13  1  0  0  0  0
 15 10  1  0  0  0  0
 16 15  1  0  0  0  0
 17 11  1  0  0  0  0
 17 18  1  0  0  0  0
 19 22  1  0  0  0  0
 20 25  1  0  0  0  0
 21 20  2  0  0  0  0
 21 22  1  0  0  0  0
 22 23  2  0  0  0  0
 23 24  1  0  0  0  0
 25 28  1  0  0  0  0
 25 24  2  0  0  0  0
 26 27  1  0  0  0  0
 27 20  1  0  0  0  0
 29 28  1  0  0  0  0
M  END
>  <MODEL>
8

>  <REMARK>
 VINA RESULT:    -6.985      1.441      3.273
 INTER + INTRA:         -11.121
 INTER:                 -10.536
 INTRA:                  -0.586
 UNBOUND:                -0.665
  Name = CHEMBL4471581
  13 active torsions:
  status: ('A' for Active; 'I' for Inactive)
    1  A    between atoms: C_1  and  O_2
    2  A    between atoms: O_2  and  C_3
    3  A    between atoms: C_5  and  C_6
    4  A    between atoms: C_6  and  N_7
    5  A    between atoms: C_8  and  C_10
    6  A    between atoms: C_11  and  C_12
    7  A    between atoms: C_14  and  O_15
    8  A    between atoms: O_15  and  C_16
    9  A    between atoms: C_17  and  O_18
   10  A    between atoms: O_18  and  C_19
   11  A    between atoms: C_20  and  O_21
   12  A    between atoms: O_21  and  C_22
   13  A    between atoms: C_26  and  O_27
                            x       y       z     vdW  Elec       q    Type
                         _______ _______ _______ _____ _____    ______ ____

>  <TORSDO>
F 9

>  <SCORE>
-6.985

>  <RMSD_LB>
1.441

>  <RMSD_UB>
3.273

$$$$
CHEMBL4471581
 OpenBabel10172500443D

 29 30  0  0  0  0  0  0  0  0999 V2000
  138.8720  137.7100  155.0450 N   0  0  0  0  0  0  0  0  0  0  0  0
  140.1600  137.8620  155.4820 C   0  0  0  0  0  0  0  0  0  0  0  0
  140.5190  137.7450  156.6530 O   0  0  0  0  0  0  0  0  0  0  0  0
  138.6840  137.7810  154.0810 H   0  0  0  0  0  0  0  0  0  0  0  0
  141.1200  138.1880  154.3940 C   0  0  0  0  0  3  0  0  0  0  0  0
  140.8790  137.8030  153.1260 C   0  0  0  0  0  3  0  0  0  0  0  0
  141.7840  138.1010  152.0020 C   0  0  0  0  0  0  0  0  0  0  0  0
  142.4520  139.3310  151.9390 C   0  0  0  0  0  3  0  0  0  0  0  0
  143.3250  139.6330  150.8800 C   0  0  0  0  0  0  0  0  0  0  0  0
  143.5430  138.6780  149.8610 C   0  0  0  0  0  0  0  0  0  0  0  0
  142.8920  137.4240  149.9390 C   0  0  0  0  0  0  0  0  0  0  0  0
  142.0340  137.1500  151.0080 C   0  0  0  0  0  3  0  0  0  0  0  0
  143.9860  140.8280  150.7870 O   0  0  0  0  0  0  0  0  0  0  0  0
  145.2000  141.0210  151.4930 C   0  0  0  0  0  1  0  0  0  0  0  0
  144.3510  138.8270  148.7540 O   0  0  0  0  0  0  0  0  0  0  0  0
  143.9050  139.6250  147.6670 C   0  0  0  0  0  1  0  0  0  0  0  0
  143.1500  136.5220  148.9320 O   0  0  0  0  0  0  0  0  0  0  0  0
  143.5550  135.2090  149.3100 C   0  0  0  0  0  1  0  0  0  0  0  0
  137.7730  137.4470  155.9570 C   0  0  0  0  0  2  0  0  0  0  0  0
  134.8010  135.0280  155.7540 C   0  0  0  0  0  0  0  0  0  0  0  0
  135.7690  135.9130  156.2520 C   0  0  0  0  0  3  0  0  0  0  0  0
  136.7610  136.4600  155.4180 C   0  0  0  0  0  0  0  0  0  0  0  0
  136.7510  136.1170  154.0590 C   0  0  0  0  0  3  0  0  0  0  0  0
  135.7930  135.2340  153.5500 C   0  0  0  0  0  3  0  0  0  0  0  0
  134.8290  134.6930  154.3960 C   0  0  0  0  0  0  0  0  0  0  0  0
  133.9240  134.5850  157.9230 C   0  0  0  0  0  1  0  0  0  0  0  0
  133.8080  134.4540  156.5100 O   0  0  0  0  0  0  0  0  0  0  0  0
  133.8920  133.8220  153.8980 O   0  0  0  0  0  0  0  0  0  0  0  0
  133.6340  133.0730  154.3990 H   0  0  0  0  0  0  0  0  0  0  0  0
  1  2  1  0  0  0  0
  1 19  1  0  0  0  0
  2  3  2  0  0  0  0
  4  1  1  0  0  0  0
  5  2  1  0  0  0  0
  6  5  2  0  0  0  0
  7  6  1  0  0  0  0
  8  7  1  0  0  0  0
  9  8  2  0  0  0  0
 10 11  2  0  0  0  0
 10  9  1  0  0  0  0
 11 12  1  0  0  0  0
 12  7  2  0  0  0  0
 13  9  1  0  0  0  0
 13 14  1  0  0  0  0
 15 10  1  0  0  0  0
 16 15  1  0  0  0  0
 17 18  1  0  0  0  0
 17 11  1  0  0  0  0
 20 21  1  0  0  0  0
 20 27  1  0  0  0  0
 22 19  1  0  0  0  0
 22 21  2  0  0  0  0
 23 22  1  0  0  0  0
 24 23  2  0  0  0  0
 24 25  1  0  0  0  0
 25 20  2  0  0  0  0
 27 26  1  0  0  0  0
 28 25  1  0  0  0  0
 28 29  1  0  0  0  0
M  END
>  <MODEL>
9

>  <REMARK>
 VINA RESULT:    -6.873      1.841      2.068
 INTER + INTRA:         -10.953
 INTER:                 -10.261
 INTRA:                  -0.692
 UNBOUND:                -0.665
  Name = CHEMBL4471581
  13 active torsions:
  status: ('A' for Active; 'I' for Inactive)
    1  A    between atoms: C_1  and  O_2
    2  A    between atoms: O_2  and  C_3
    3  A    between atoms: C_5  and  C_6
    4  A    between atoms: C_6  and  N_7
    5  A    between atoms: C_8  and  C_10
    6  A    between atoms: C_11  and  C_12
    7  A    between atoms: C_14  and  O_15
    8  A    between atoms: O_15  and  C_16
    9  A    between atoms: C_17  and  O_18
   10  A    between atoms: O_18  and  C_19
   11  A    between atoms: C_20  and  O_21
   12  A    between atoms: O_21  and  C_22
   13  A    between atoms: C_26  and  O_27
                            x       y       z     vdW  Elec       q    Type
                         _______ _______ _______ _____ _____    ______ ____

>  <TORSDO>
F 9

>  <SCORE>
-6.873

>  <RMSD_LB>
1.841

>  <RMSD_UB>
2.068

$$$$
