CHEMBL4593283
 OpenBabel10162523363D

 15 15  0  0  0  0  0  0  0  0999 V2000
  146.6950  141.4080  153.3710 C   0  0  0  0  0  0  0  0  0  0  0  0
  146.2960  141.8480  152.1050 C   0  0  0  0  0  3  0  0  0  0  0  0
  147.2420  142.2240  151.1310 C   0  0  0  0  0  0  0  0  0  0  0  0
  148.6020  142.1960  151.4710 C   0  0  0  0  0  3  0  0  0  0  0  0
  149.0140  141.7720  152.7350 C   0  0  0  0  0  3  0  0  0  0  0  0
  148.0620  141.3770  153.6740 C   0  0  0  0  0  0  0  0  0  0  0  0
  145.2200  139.7330  154.2050 C   0  0  0  0  0  1  0  0  0  0  0  0
  145.8450  140.9970  154.3660 O   0  0  0  0  0  0  0  0  0  0  0  0
  148.4680  140.9560  154.9130 O   0  0  0  0  0  0  0  0  0  0  0  0
  149.0720  141.4730  155.4080 H   0  0  0  0  0  0  0  0  0  0  0  0
  146.8280  142.7290  149.7690 C   0  0  0  0  0  2  0  0  0  0  0  0
  146.1380  141.7250  148.9640 N   0  0  0  0  0  4  0  0  0  0  0  0
  145.2380  142.0950  148.6580 H   0  0  0  0  0  0  0  0  0  0  0  0
  145.9870  140.8850  149.5230 H   0  0  0  0  0  0  0  0  0  0  0  0
  146.7050  141.4930  148.1480 H   0  0  0  0  0  0  0  0  0  0  0  0
  1  6  1  0  0  0  0
  1  8  1  0  0  0  0
  2  1  2  0  0  0  0
  3  4  2  0  0  0  0
  3  2  1  0  0  0  0
  4  5  1  0  0  0  0
  5  6  2  0  0  0  0
  6  9  1  0  0  0  0
  7  8  1  0  0  0  0
  9 10  1  0  0  0  0
 11  3  1  0  0  0  0
 12 14  1  0  0  0  0
 12 11  1  0  0  0  0
 13 12  1  0  0  0  0
 15 12  1  0  0  0  0
M  END
>  <MODEL>
1

>  <REMARK>
 VINA RESULT:    -4.948      0.000      0.000
 INTER + INTRA:          -5.890
 INTER:                  -5.815
 INTRA:                  -0.075
 UNBOUND:                -0.075
  Name = CHEMBL4593283
  5 active torsions:
  status: ('A' for Active; 'I' for Inactive)
    1  A    between atoms: C_1  and  O_2
    2  A    between atoms: O_2  and  C_3
    3  A    between atoms: C_5  and  C_6
    4  A    between atoms: C_6  and  N_7
    5  A    between atoms: C_10  and  O_11
                            x       y       z     vdW  Elec       q    Type
                         _______ _______ _______ _____ _____    ______ ____

>  <TORSDO>
F 4

>  <SCORE>
-4.948

>  <RMSD_LB>
0.000

>  <RMSD_UB>
0.000

$$$$
CHEMBL4593283
 OpenBabel10162523363D

 15 15  0  0  0  0  0  0  0  0999 V2000
  148.0090  140.1190  152.8920 C   0  0  0  0  0  0  0  0  0  0  0  0
  147.8770  140.7560  151.6540 C   0  0  0  0  0  3  0  0  0  0  0  0
  147.0940  141.9170  151.5100 C   0  0  0  0  0  0  0  0  0  0  0  0
  146.4020  142.4030  152.6290 C   0  0  0  0  0  3  0  0  0  0  0  0
  146.5130  141.7700  153.8670 C   0  0  0  0  0  3  0  0  0  0  0  0
  147.3170  140.6380  153.9940 C   0  0  0  0  0  0  0  0  0  0  0  0
  148.2750  137.7650  152.6390 C   0  0  0  0  0  1  0  0  0  0  0  0
  148.7710  139.0020  153.1270 O   0  0  0  0  0  0  0  0  0  0  0  0
  147.4290  140.0190  155.2110 O   0  0  0  0  0  0  0  0  0  0  0  0
  146.6620  139.8550  155.7250 H   0  0  0  0  0  0  0  0  0  0  0  0
  146.9190  142.6020  150.1750 C   0  0  0  0  0  2  0  0  0  0  0  0
  146.0410  141.8760  149.2620 N   0  0  0  0  0  4  0  0  0  0  0  0
  146.1030  140.8760  149.4530 H   0  0  0  0  0  0  0  0  0  0  0  0
  146.3290  142.0550  148.2990 H   0  0  0  0  0  0  0  0  0  0  0  0
  145.0790  142.1880  149.3930 H   0  0  0  0  0  0  0  0  0  0  0  0
  1  8  1  0  0  0  0
  1  6  1  0  0  0  0
  2  1  2  0  0  0  0
  3  2  1  0  0  0  0
  3  4  2  0  0  0  0
  4  5  1  0  0  0  0
  5  6  2  0  0  0  0
  6  9  1  0  0  0  0
  7  8  1  0  0  0  0
  9 10  1  0  0  0  0
 11  3  1  0  0  0  0
 12 15  1  0  0  0  0
 12 13  1  0  0  0  0
 12 11  1  0  0  0  0
 14 12  1  0  0  0  0
M  END
>  <MODEL>
2

>  <REMARK>
 VINA RESULT:    -4.783      1.676      2.233
 INTER + INTRA:          -5.697
 INTER:                  -5.624
 INTRA:                  -0.073
 UNBOUND:                -0.075
  Name = CHEMBL4593283
  5 active torsions:
  status: ('A' for Active; 'I' for Inactive)
    1  A    between atoms: C_1  and  O_2
    2  A    between atoms: O_2  and  C_3
    3  A    between atoms: C_5  and  C_6
    4  A    between atoms: C_6  and  N_7
    5  A    between atoms: C_10  and  O_11
                            x       y       z     vdW  Elec       q    Type
                         _______ _______ _______ _____ _____    ______ ____

>  <TORSDO>
F 4

>  <SCORE>
-4.783

>  <RMSD_LB>
1.676

>  <RMSD_UB>
2.233

$$$$
CHEMBL4593283
 OpenBabel10162523363D

 15 15  0  0  0  0  0  0  0  0999 V2000
  145.4580  141.5860  151.1550 C   0  0  0  0  0  0  0  0  0  0  0  0
  145.8860  141.5320  152.4850 C   0  0  0  0  0  3  0  0  0  0  0  0
  147.2030  141.8820  152.8420 C   0  0  0  0  0  0  0  0  0  0  0  0
  148.1010  142.2420  151.8260 C   0  0  0  0  0  3  0  0  0  0  0  0
  147.6900  142.2870  150.4930 C   0  0  0  0  0  3  0  0  0  0  0  0
  146.3740  141.9640  150.1660 C   0  0  0  0  0  0  0  0  0  0  0  0
  143.6780  140.0050  151.0460 C   0  0  0  0  0  1  0  0  0  0  0  0
  144.1890  141.2900  150.7240 O   0  0  0  0  0  0  0  0  0  0  0  0
  145.9710  142.0120  148.8570 O   0  0  0  0  0  0  0  0  0  0  0  0
  146.5860  141.8400  148.1710 H   0  0  0  0  0  0  0  0  0  0  0  0
  147.6910  141.8030  154.2690 C   0  0  0  0  0  2  0  0  0  0  0  0
  147.5650  140.4710  154.8530 N   0  0  0  0  0  4  0  0  0  0  0  0
  147.4970  139.7780  154.1080 H   0  0  0  0  0  0  0  0  0  0  0  0
  146.7250  140.4310  155.4310 H   0  0  0  0  0  0  0  0  0  0  0  0
  148.3830  140.2720  155.4290 H   0  0  0  0  0  0  0  0  0  0  0  0
  1  2  1  0  0  0  0
  2  3  2  0  0  0  0
  3 11  1  0  0  0  0
  4  3  1  0  0  0  0
  5  4  2  0  0  0  0
  6  5  1  0  0  0  0
  6  1  2  0  0  0  0
  8  7  1  0  0  0  0
  8  1  1  0  0  0  0
  9  6  1  0  0  0  0
 10  9  1  0  0  0  0
 11 12  1  0  0  0  0
 12 15  1  0  0  0  0
 12 14  1  0  0  0  0
 13 12  1  0  0  0  0
M  END
>  <MODEL>
3

>  <REMARK>
 VINA RESULT:    -4.684      3.055      3.879
 INTER + INTRA:          -5.581
 INTER:                  -5.504
 INTRA:                  -0.077
 UNBOUND:                -0.075
  Name = CHEMBL4593283
  5 active torsions:
  status: ('A' for Active; 'I' for Inactive)
    1  A    between atoms: C_1  and  O_2
    2  A    between atoms: O_2  and  C_3
    3  A    between atoms: C_5  and  C_6
    4  A    between atoms: C_6  and  N_7
    5  A    between atoms: C_10  and  O_11
                            x       y       z     vdW  Elec       q    Type
                         _______ _______ _______ _____ _____    ______ ____

>  <TORSDO>
F 4

>  <SCORE>
-4.684

>  <RMSD_LB>
3.055

>  <RMSD_UB>
3.879

$$$$
CHEMBL4593283
 OpenBabel10162523363D

 15 15  0  0  0  0  0  0  0  0999 V2000
  146.8380  140.4840  150.7880 C   0  0  0  0  0  0  0  0  0  0  0  0
  147.7680  140.5860  151.8280 C   0  0  0  0  0  3  0  0  0  0  0  0
  147.6000  141.5200  152.8680 C   0  0  0  0  0  0  0  0  0  0  0  0
  146.5000  142.3890  152.8190 C   0  0  0  0  0  3  0  0  0  0  0  0
  145.5710  142.3070  151.7800 C   0  0  0  0  0  3  0  0  0  0  0  0
  145.7420  141.3550  150.7760 C   0  0  0  0  0  0  0  0  0  0  0  0
  146.7210  138.2150  150.0690 C   0  0  0  0  0  1  0  0  0  0  0  0
  146.9100  139.5860  149.7530 O   0  0  0  0  0  0  0  0  0  0  0  0
  144.8280  141.2730  149.7580 O   0  0  0  0  0  0  0  0  0  0  0  0
  144.6790  140.4540  149.3280 H   0  0  0  0  0  0  0  0  0  0  0  0
  148.6080  141.6630  153.9840 C   0  0  0  0  0  2  0  0  0  0  0  0
  148.5320  140.5930  154.9750 N   0  0  0  0  0  4  0  0  0  0  0  0
  147.5570  140.4370  155.2320 H   0  0  0  0  0  0  0  0  0  0  0  0
  149.0630  140.8590  155.8040 H   0  0  0  0  0  0  0  0  0  0  0  0
  148.9210  139.7360  154.5820 H   0  0  0  0  0  0  0  0  0  0  0  0
  1  2  1  0  0  0  0
  2  3  2  0  0  0  0
  3 11  1  0  0  0  0
  4  3  1  0  0  0  0
  5  4  2  0  0  0  0
  6  1  2  0  0  0  0
  6  5  1  0  0  0  0
  8  7  1  0  0  0  0
  8  1  1  0  0  0  0
  9  6  1  0  0  0  0
 10  9  1  0  0  0  0
 11 12  1  0  0  0  0
 12 13  1  0  0  0  0
 12 14  1  0  0  0  0
 15 12  1  0  0  0  0
M  END
>  <MODEL>
4

>  <REMARK>
 VINA RESULT:    -4.599      3.327      4.257
 INTER + INTRA:          -5.481
 INTER:                  -5.402
 INTRA:                  -0.078
 UNBOUND:                -0.075
  Name = CHEMBL4593283
  5 active torsions:
  status: ('A' for Active; 'I' for Inactive)
    1  A    between atoms: C_1  and  O_2
    2  A    between atoms: O_2  and  C_3
    3  A    between atoms: C_5  and  C_6
    4  A    between atoms: C_6  and  N_7
    5  A    between atoms: C_10  and  O_11
                            x       y       z     vdW  Elec       q    Type
                         _______ _______ _______ _____ _____    ______ ____

>  <TORSDO>
F 4

>  <SCORE>
-4.599

>  <RMSD_LB>
3.327

>  <RMSD_UB>
4.257

$$$$
CHEMBL4593283
 OpenBabel10162523363D

 15 15  0  0  0  0  0  0  0  0999 V2000
  146.1750  140.2230  153.9190 C   0  0  0  0  0  0  0  0  0  0  0  0
  145.2230  139.8420  152.9670 C   0  0  0  0  0  3  0  0  0  0  0  0
  144.8880  140.6860  151.8910 C   0  0  0  0  0  0  0  0  0  0  0  0
  145.4940  141.9490  151.8140 C   0  0  0  0  0  3  0  0  0  0  0  0
  146.4360  142.3480  152.7640 C   0  0  0  0  0  3  0  0  0  0  0  0
  146.7730  141.4840  153.8050 C   0  0  0  0  0  0  0  0  0  0  0  0
  146.7070  138.0580  154.7570 C   0  0  0  0  0  1  0  0  0  0  0  0
  146.5800  139.4540  154.9800 O   0  0  0  0  0  0  0  0  0  0  0  0
  147.7010  141.8750  154.7350 O   0  0  0  0  0  0  0  0  0  0  0  0
  148.0860  141.2410  155.3070 H   0  0  0  0  0  0  0  0  0  0  0  0
  143.8430  140.3030  150.8700 C   0  0  0  0  0  2  0  0  0  0  0  0
  142.5830  139.8660  151.4660 N   0  0  0  0  0  4  0  0  0  0  0  0
  141.9440  139.5700  150.7290 H   0  0  0  0  0  0  0  0  0  0  0  0
  142.1670  140.6390  151.9860 H   0  0  0  0  0  0  0  0  0  0  0  0
  142.7580  139.0860  152.0990 H   0  0  0  0  0  0  0  0  0  0  0  0
  1  8  1  0  0  0  0
  2  1  2  0  0  0  0
  3  2  1  0  0  0  0
  4  3  2  0  0  0  0
  4  5  1  0  0  0  0
  5  6  2  0  0  0  0
  6  1  1  0  0  0  0
  6  9  1  0  0  0  0
  7  8  1  0  0  0  0
  9 10  1  0  0  0  0
 11 12  1  0  0  0  0
 11  3  1  0  0  0  0
 12 14  1  0  0  0  0
 12 15  1  0  0  0  0
 13 12  1  0  0  0  0
M  END
>  <MODEL>
5

>  <REMARK>
 VINA RESULT:    -4.524      2.205      2.752
 INTER + INTRA:          -5.393
 INTER:                  -5.322
 INTRA:                  -0.071
 UNBOUND:                -0.075
  Name = CHEMBL4593283
  5 active torsions:
  status: ('A' for Active; 'I' for Inactive)
    1  A    between atoms: C_1  and  O_2
    2  A    between atoms: O_2  and  C_3
    3  A    between atoms: C_5  and  C_6
    4  A    between atoms: C_6  and  N_7
    5  A    between atoms: C_10  and  O_11
                            x       y       z     vdW  Elec       q    Type
                         _______ _______ _______ _____ _____    ______ ____

>  <TORSDO>
F 4

>  <SCORE>
-4.524

>  <RMSD_LB>
2.205

>  <RMSD_UB>
2.752

$$$$
CHEMBL4593283
 OpenBabel10162523363D

 15 15  0  0  0  0  0  0  0  0999 V2000
  133.2860  135.4070  150.6480 C   0  0  0  0  0  0  0  0  0  0  0  0
  133.1240  136.3180  149.5990 C   0  0  0  0  0  3  0  0  0  0  0  0
  132.7850  135.8840  148.3020 C   0  0  0  0  0  0  0  0  0  0  0  0
  132.6600  134.5080  148.0660 C   0  0  0  0  0  3  0  0  0  0  0  0
  132.8320  133.5870  149.1000 C   0  0  0  0  0  3  0  0  0  0  0  0
  133.1380  134.0400  150.3820 C   0  0  0  0  0  0  0  0  0  0  0  0
  134.9530  135.9770  152.2520 C   0  0  0  0  0  1  0  0  0  0  0  0
  133.5870  135.7440  151.9440 O   0  0  0  0  0  0  0  0  0  0  0  0
  133.3030  133.1350  151.3980 O   0  0  0  0  0  0  0  0  0  0  0  0
  132.5630  132.8540  151.8990 H   0  0  0  0  0  0  0  0  0  0  0  0
  132.6340  136.8510  147.1520 C   0  0  0  0  0  2  0  0  0  0  0  0
  133.7360  137.8020  147.0440 N   0  0  0  0  0  4  0  0  0  0  0  0
  133.4080  138.6520  146.5860 H   0  0  0  0  0  0  0  0  0  0  0  0
  134.4890  137.3900  146.4930 H   0  0  0  0  0  0  0  0  0  0  0  0
  134.0820  138.0300  147.9760 H   0  0  0  0  0  0  0  0  0  0  0  0
  1  8  1  0  0  0  0
  2  1  2  0  0  0  0
  3  2  1  0  0  0  0
  4  3  2  0  0  0  0
  4  5  1  0  0  0  0
  5  6  2  0  0  0  0
  6  1  1  0  0  0  0
  6  9  1  0  0  0  0
  8  7  1  0  0  0  0
  9 10  1  0  0  0  0
 11  3  1  0  0  0  0
 12 11  1  0  0  0  0
 12 15  1  0  0  0  0
 13 12  1  0  0  0  0
 14 12  1  0  0  0  0
M  END
>  <MODEL>
6

>  <REMARK>
 VINA RESULT:    -4.404     13.865     15.584
 INTER + INTRA:          -5.252
 INTER:                  -5.212
 INTRA:                  -0.039
 UNBOUND:                -0.075
  Name = CHEMBL4593283
  5 active torsions:
  status: ('A' for Active; 'I' for Inactive)
    1  A    between atoms: C_1  and  O_2
    2  A    between atoms: O_2  and  C_3
    3  A    between atoms: C_5  and  C_6
    4  A    between atoms: C_6  and  N_7
    5  A    between atoms: C_10  and  O_11
                            x       y       z     vdW  Elec       q    Type
                         _______ _______ _______ _____ _____    ______ ____

>  <TORSDO>
F 4

>  <SCORE>
-4.404

>  <RMSD_LB>
13.865

>  <RMSD_UB>
15.584

$$$$
CHEMBL4593283
 OpenBabel10162523363D

 15 15  0  0  0  0  0  0  0  0999 V2000
  145.1670  140.1390  152.8290 C   0  0  0  0  0  0  0  0  0  0  0  0
  146.2900  140.4190  153.6160 C   0  0  0  0  0  3  0  0  0  0  0  0
  147.1180  141.5240  153.3370 C   0  0  0  0  0  0  0  0  0  0  0  0
  146.8260  142.3180  152.2190 C   0  0  0  0  0  3  0  0  0  0  0  0
  145.7160  142.0420  151.4180 C   0  0  0  0  0  3  0  0  0  0  0  0
  144.8930  140.9610  151.7290 C   0  0  0  0  0  0  0  0  0  0  0  0
  143.4510  139.1930  154.1850 C   0  0  0  0  0  1  0  0  0  0  0  0
  144.2930  139.1040  153.0450 O   0  0  0  0  0  0  0  0  0  0  0  0
  143.8030  140.6930  150.9440 O   0  0  0  0  0  0  0  0  0  0  0  0
  143.7620  141.0260  150.0690 H   0  0  0  0  0  0  0  0  0  0  0  0
  148.3500  141.8250  154.1580 C   0  0  0  0  0  2  0  0  0  0  0  0
  149.5660  141.9400  153.3590 N   0  0  0  0  0  4  0  0  0  0  0  0
  150.3370  142.2410  153.9550 H   0  0  0  0  0  0  0  0  0  0  0  0
  149.4230  142.6260  152.6180 H   0  0  0  0  0  0  0  0  0  0  0  0
  149.7890  141.0340  152.9460 H   0  0  0  0  0  0  0  0  0  0  0  0
  1  8  1  0  0  0  0
  1  2  1  0  0  0  0
  3  2  2  0  0  0  0
  3 11  1  0  0  0  0
  4  3  1  0  0  0  0
  5  6  1  0  0  0  0
  5  4  2  0  0  0  0
  6  1  2  0  0  0  0
  8  7  1  0  0  0  0
  9  6  1  0  0  0  0
 10  9  1  0  0  0  0
 12 13  1  0  0  0  0
 12 11  1  0  0  0  0
 14 12  1  0  0  0  0
 15 12  1  0  0  0  0
M  END
>  <MODEL>
7

>  <REMARK>
 VINA RESULT:    -4.391      2.669      3.651
 INTER + INTRA:          -5.236
 INTER:                  -5.152
 INTRA:                  -0.084
 UNBOUND:                -0.075
  Name = CHEMBL4593283
  5 active torsions:
  status: ('A' for Active; 'I' for Inactive)
    1  A    between atoms: C_1  and  O_2
    2  A    between atoms: O_2  and  C_3
    3  A    between atoms: C_5  and  C_6
    4  A    between atoms: C_6  and  N_7
    5  A    between atoms: C_10  and  O_11
                            x       y       z     vdW  Elec       q    Type
                         _______ _______ _______ _____ _____    ______ ____

>  <TORSDO>
F 4

>  <SCORE>
-4.391

>  <RMSD_LB>
2.669

>  <RMSD_UB>
3.651

$$$$
CHEMBL4593283
 OpenBabel10162523363D

 15 15  0  0  0  0  0  0  0  0999 V2000
  134.3430  133.4680  147.1340 C   0  0  0  0  0  0  0  0  0  0  0  0
  133.9400  134.8070  147.0770 C   0  0  0  0  0  3  0  0  0  0  0  0
  133.2220  135.3980  148.1350 C   0  0  0  0  0  0  0  0  0  0  0  0
  132.8710  134.6030  149.2360 C   0  0  0  0  0  3  0  0  0  0  0  0
  133.2550  133.2630  149.3000 C   0  0  0  0  0  3  0  0  0  0  0  0
  133.9900  132.7060  148.2540 C   0  0  0  0  0  0  0  0  0  0  0  0
  134.7330  133.1000  144.8130 C   0  0  0  0  0  1  0  0  0  0  0  0
  135.0660  132.8220  146.1640 O   0  0  0  0  0  0  0  0  0  0  0  0
  134.3700  131.3910  148.3200 O   0  0  0  0  0  0  0  0  0  0  0  0
  135.2620  131.1700  148.5020 H   0  0  0  0  0  0  0  0  0  0  0  0
  132.7550  136.8340  148.0790 C   0  0  0  0  0  2  0  0  0  0  0  0
  133.5400  137.6640  147.1700 N   0  0  0  0  0  4  0  0  0  0  0  0
  134.4900  137.2970  147.1090 H   0  0  0  0  0  0  0  0  0  0  0  0
  133.5690  138.6210  147.5220 H   0  0  0  0  0  0  0  0  0  0  0  0
  133.1120  137.6550  146.2440 H   0  0  0  0  0  0  0  0  0  0  0  0
  1  6  1  0  0  0  0
  2  1  2  0  0  0  0
  2  3  1  0  0  0  0
  3  4  2  0  0  0  0
  4  5  1  0  0  0  0
  6  9  1  0  0  0  0
  6  5  2  0  0  0  0
  7  8  1  0  0  0  0
  8  1  1  0  0  0  0
  9 10  1  0  0  0  0
 11  3  1  0  0  0  0
 12 14  1  0  0  0  0
 12 11  1  0  0  0  0
 13 12  1  0  0  0  0
 15 12  1  0  0  0  0
M  END
>  <MODEL>
8

>  <REMARK>
 VINA RESULT:    -4.321     15.912     16.292
 INTER + INTRA:          -5.153
 INTER:                  -5.079
 INTRA:                  -0.074
 UNBOUND:                -0.075
  Name = CHEMBL4593283
  5 active torsions:
  status: ('A' for Active; 'I' for Inactive)
    1  A    between atoms: C_1  and  O_2
    2  A    between atoms: O_2  and  C_3
    3  A    between atoms: C_5  and  C_6
    4  A    between atoms: C_6  and  N_7
    5  A    between atoms: C_10  and  O_11
                            x       y       z     vdW  Elec       q    Type
                         _______ _______ _______ _____ _____    ______ ____

>  <TORSDO>
F 4

>  <SCORE>
-4.321

>  <RMSD_LB>
15.912

>  <RMSD_UB>
16.292

$$$$
CHEMBL4593283
 OpenBabel10162523363D

 15 15  0  0  0  0  0  0  0  0999 V2000
  133.2010  135.2950  150.0440 C   0  0  0  0  0  0  0  0  0  0  0  0
  133.8470  134.1640  149.5340 C   0  0  0  0  0  3  0  0  0  0  0  0
  134.1650  134.0590  148.1660 C   0  0  0  0  0  0  0  0  0  0  0  0
  133.7760  135.0960  147.3050 C   0  0  0  0  0  3  0  0  0  0  0  0
  133.1190  136.2240  147.7980 C   0  0  0  0  0  3  0  0  0  0  0  0
  132.8400  136.3200  149.1610 C   0  0  0  0  0  0  0  0  0  0  0  0
  133.9430  135.8100  152.2490 C   0  0  0  0  0  1  0  0  0  0  0  0
  132.8800  135.4910  151.3630 O   0  0  0  0  0  0  0  0  0  0  0  0
  132.1980  137.4300  149.6440 O   0  0  0  0  0  0  0  0  0  0  0  0
  131.4460  137.3330  150.1940 H   0  0  0  0  0  0  0  0  0  0  0  0
  134.8370  132.8340  147.5940 C   0  0  0  0  0  2  0  0  0  0  0  0
  136.2150  133.0700  147.1750 N   0  0  0  0  0  4  0  0  0  0  0  0
  136.6540  132.1820  146.9320 H   0  0  0  0  0  0  0  0  0  0  0  0
  136.7330  133.5050  147.9390 H   0  0  0  0  0  0  0  0  0  0  0  0
  136.2240  133.6880  146.3640 H   0  0  0  0  0  0  0  0  0  0  0  0
  1  8  1  0  0  0  0
  2  1  1  0  0  0  0
  3  2  2  0  0  0  0
  4  5  2  0  0  0  0
  4  3  1  0  0  0  0
  5  6  1  0  0  0  0
  6  9  1  0  0  0  0
  6  1  2  0  0  0  0
  8  7  1  0  0  0  0
  9 10  1  0  0  0  0
 11  3  1  0  0  0  0
 12 11  1  0  0  0  0
 12 14  1  0  0  0  0
 13 12  1  0  0  0  0
 15 12  1  0  0  0  0
M  END
>  <MODEL>
9

>  <REMARK>
 VINA RESULT:    -3.980     14.743     15.528
 INTER + INTRA:          -4.753
 INTER:                  -4.678
 INTRA:                  -0.075
 UNBOUND:                -0.075
  Name = CHEMBL4593283
  5 active torsions:
  status: ('A' for Active; 'I' for Inactive)
    1  A    between atoms: C_1  and  O_2
    2  A    between atoms: O_2  and  C_3
    3  A    between atoms: C_5  and  C_6
    4  A    between atoms: C_6  and  N_7
    5  A    between atoms: C_10  and  O_11
                            x       y       z     vdW  Elec       q    Type
                         _______ _______ _______ _____ _____    ______ ____

>  <TORSDO>
F 4

>  <SCORE>
-3.980

>  <RMSD_LB>
14.743

>  <RMSD_UB>
15.528

$$$$
