CHEMBL3808412
 OpenBabel10162523393D

 25 26  0  0  1  0  0  0  0  0999 V2000
  146.2200  140.3640  148.4500 C   0  0  2  0  0  3  0  0  0  0  0  0
  144.6900  140.2560  148.4250 C   0  0  0  0  0  1  0  0  0  0  0  0
  146.8430  139.2770  149.3590 C   0  0  0  0  0  2  0  0  0  0  0  0
  145.7990  138.4030  150.0630 C   0  0  0  0  0  2  0  0  0  0  0  0
  147.0570  138.5410  153.6670 C   0  0  0  0  0  0  0  0  0  0  0  0
  147.0280  138.4160  152.2740 C   0  0  0  0  0  3  0  0  0  0  0  0
  145.8260  138.5680  151.5630 C   0  0  0  0  0  0  0  0  0  0  0  0
  144.6480  138.8680  152.2600 C   0  0  0  0  0  3  0  0  0  0  0  0
  144.6640  138.9940  153.6500 C   0  0  0  0  0  3  0  0  0  0  0  0
  145.8630  138.8280  154.3430 C   0  0  0  0  0  0  0  0  0  0  0  0
  149.2070  137.5560  153.9530 C   0  0  0  0  0  1  0  0  0  0  0  0
  148.1770  138.4000  154.4450 O   0  0  0  0  0  0  0  0  0  0  0  0
  145.8760  138.9430  155.7090 O   0  0  0  0  0  0  0  0  0  0  0  0
  146.6090  139.3400  156.1370 H   0  0  0  0  0  0  0  0  0  0  0  0
  146.6780  141.7580  148.9410 C   0  0  0  0  0  2  0  0  0  0  0  0
  146.6980  141.9470  150.4410 C   0  0  0  0  0  0  0  0  0  0  0  0
  145.5210  142.2630  151.1250 C   0  0  0  0  0  3  0  0  0  0  0  0
  145.5220  142.3980  152.5130 C   0  0  0  0  0  3  0  0  0  0  0  0
  146.7040  142.2230  153.2390 C   0  0  0  0  0  0  0  0  0  0  0  0
  147.9010  141.9250  152.5800 C   0  0  0  0  0  0  0  0  0  0  0  0
  147.8800  141.7830  151.1820 C   0  0  0  0  0  3  0  0  0  0  0  0
  146.6440  142.3420  154.6020 O   0  0  0  0  0  0  0  0  0  0  0  0
  146.9810  143.1090  155.0200 H   0  0  0  0  0  0  0  0  0  0  0  0
  149.1460  141.7410  153.1180 O   0  0  0  0  0  0  0  0  0  0  0  0
  150.1880  142.6160  152.7120 C   0  0  0  0  0  1  0  0  0  0  0  0
  1  2  1  1  0  0  0
  1 15  1  0  0  0  0
  1  3  1  0  0  0  0
  3  4  1  0  0  0  0
  4  7  1  0  0  0  0
  5 10  1  0  0  0  0
  5 12  1  0  0  0  0
  6  5  2  0  0  0  0
  7  8  2  0  0  0  0
  7  6  1  0  0  0  0
  8  9  1  0  0  0  0
  9 10  2  0  0  0  0
 10 13  1  0  0  0  0
 11 12  1  0  0  0  0
 13 14  1  0  0  0  0
 15 16  1  0  0  0  0
 16 17  2  0  0  0  0
 16 21  1  0  0  0  0
 17 18  1  0  0  0  0
 18 19  2  0  0  0  0
 19 22  1  0  0  0  0
 20 24  1  0  0  0  0
 20 19  1  0  0  0  0
 21 20  2  0  0  0  0
 22 23  1  0  0  0  0
 25 24  1  0  0  0  0
M  END
>  <MODEL>
1

>  <REMARK>
 VINA RESULT:    -7.202      0.000      0.000
 INTER + INTRA:         -11.515
 INTER:                  -9.223
 INTRA:                  -2.291
 UNBOUND:                -0.944
  Name = CHEMBL3808412
  12 active torsions:
  status: ('A' for Active; 'I' for Inactive)
    1  A    between atoms: C_1  and  O_2
    2  A    between atoms: O_2  and  C_3
    3  A    between atoms: C_5  and  C_6
    4  A    between atoms: C_6  and  C_7
    5  A    between atoms: C_7  and  C_8
    6  A    between atoms: C_8  and  C_9
    7  A    between atoms: C_8  and  C_10
    8  A    between atoms: C_10  and  C_11
    9  A    between atoms: C_14  and  O_15
   10  A    between atoms: C_16  and  O_17
   11  A    between atoms: O_17  and  C_18
   12  A    between atoms: C_22  and  O_23
                            x       y       z     vdW  Elec       q    Type
                         _______ _______ _______ _____ _____    ______ ____

>  <TORSDO>
F 9

>  <SCORE>
-7.202

>  <RMSD_LB>
0.000

>  <RMSD_UB>
0.000

$$$$
CHEMBL3808412
 OpenBabel10162523393D

 25 26  0  0  1  0  0  0  0  0999 V2000
  139.6080  136.6580  150.3040 C   0  0  2  0  0  3  0  0  0  0  0  0
  140.6450  136.4810  149.1880 C   0  0  0  0  0  1  0  0  0  0  0  0
  138.1700  136.4510  149.7690 C   0  0  0  0  0  2  0  0  0  0  0  0
  137.0980  137.1320  150.6260 C   0  0  0  0  0  2  0  0  0  0  0  0
  134.6920  134.3090  151.5400 C   0  0  0  0  0  0  0  0  0  0  0  0
  135.4610  135.2110  150.7970 C   0  0  0  0  0  3  0  0  0  0  0  0
  136.2930  136.1450  151.4360 C   0  0  0  0  0  0  0  0  0  0  0  0
  136.3660  136.1550  152.8350 C   0  0  0  0  0  3  0  0  0  0  0  0
  135.6030  135.2610  153.5880 C   0  0  0  0  0  3  0  0  0  0  0  0
  134.7720  134.3500  152.9390 C   0  0  0  0  0  0  0  0  0  0  0  0
  132.6610  133.8480  150.3830 C   0  0  0  0  0  1  0  0  0  0  0  0
  133.8460  133.3730  151.0050 O   0  0  0  0  0  0  0  0  0  0  0  0
  134.0160  133.4780  153.6790 O   0  0  0  0  0  0  0  0  0  0  0  0
  133.2280  133.7740  154.0900 H   0  0  0  0  0  0  0  0  0  0  0  0
  139.7100  138.0600  150.9490 C   0  0  0  0  0  2  0  0  0  0  0  0
  140.1570  138.0830  152.3940 C   0  0  0  0  0  0  0  0  0  0  0  0
  141.4850  137.7980  152.7230 C   0  0  0  0  0  3  0  0  0  0  0  0
  141.9160  137.8570  154.0480 C   0  0  0  0  0  3  0  0  0  0  0  0
  141.0210  138.1990  155.0670 C   0  0  0  0  0  0  0  0  0  0  0  0
  139.6820  138.4710  154.7710 C   0  0  0  0  0  0  0  0  0  0  0  0
  139.2670  138.4160  153.4290 C   0  0  0  0  0  3  0  0  0  0  0  0
  141.5020  138.2670  156.3470 O   0  0  0  0  0  0  0  0  0  0  0  0
  141.4100  137.5340  156.9220 H   0  0  0  0  0  0  0  0  0  0  0  0
  138.6690  138.7990  155.6300 O   0  0  0  0  0  0  0  0  0  0  0  0
  137.9270  137.7460  156.2260 C   0  0  0  0  0  1  0  0  0  0  0  0
  1  2  1  6  0  0  0
  1 15  1  0  0  0  0
  3  1  1  0  0  0  0
  3  4  1  0  0  0  0
  4  7  1  0  0  0  0
  5 10  1  0  0  0  0
  6  7  1  0  0  0  0
  6  5  2  0  0  0  0
  7  8  2  0  0  0  0
  8  9  1  0  0  0  0
 10  9  2  0  0  0  0
 10 13  1  0  0  0  0
 11 12  1  0  0  0  0
 12  5  1  0  0  0  0
 13 14  1  0  0  0  0
 15 16  1  0  0  0  0
 16 17  2  0  0  0  0
 16 21  1  0  0  0  0
 17 18  1  0  0  0  0
 18 19  2  0  0  0  0
 19 22  1  0  0  0  0
 20 19  1  0  0  0  0
 20 24  1  0  0  0  0
 21 20  2  0  0  0  0
 22 23  1  0  0  0  0
 24 25  1  0  0  0  0
M  END
>  <MODEL>
2

>  <REMARK>
 VINA RESULT:    -7.038      8.291     10.410
 INTER + INTRA:         -11.274
 INTER:                  -9.890
 INTRA:                  -1.383
 UNBOUND:                -0.944
  Name = CHEMBL3808412
  12 active torsions:
  status: ('A' for Active; 'I' for Inactive)
    1  A    between atoms: C_1  and  O_2
    2  A    between atoms: O_2  and  C_3
    3  A    between atoms: C_5  and  C_6
    4  A    between atoms: C_6  and  C_7
    5  A    between atoms: C_7  and  C_8
    6  A    between atoms: C_8  and  C_9
    7  A    between atoms: C_8  and  C_10
    8  A    between atoms: C_10  and  C_11
    9  A    between atoms: C_14  and  O_15
   10  A    between atoms: C_16  and  O_17
   11  A    between atoms: O_17  and  C_18
   12  A    between atoms: C_22  and  O_23
                            x       y       z     vdW  Elec       q    Type
                         _______ _______ _______ _____ _____    ______ ____

>  <TORSDO>
F 9

>  <SCORE>
-7.038

>  <RMSD_LB>
8.291

>  <RMSD_UB>
10.410

$$$$
CHEMBL3808412
 OpenBabel10162523393D

 25 26  0  0  1  0  0  0  0  0999 V2000
  147.6770  142.2590  152.1070 C   0  0  2  0  0  3  0  0  0  0  0  0
  146.5720  142.2470  153.1710 C   0  0  0  0  0  1  0  0  0  0  0  0
  147.0790  142.3410  150.6820 C   0  0  0  0  0  2  0  0  0  0  0  0
  145.5470  142.3380  150.6650 C   0  0  0  0  0  2  0  0  0  0  0  0
  143.5090  139.1080  150.7520 C   0  0  0  0  0  0  0  0  0  0  0  0
  144.0250  140.3640  151.0920 C   0  0  0  0  0  3  0  0  0  0  0  0
  144.9760  140.9960  150.2750 C   0  0  0  0  0  0  0  0  0  0  0  0
  145.3950  140.3680  149.0960 C   0  0  0  0  0  3  0  0  0  0  0  0
  144.8900  139.1150  148.7450 C   0  0  0  0  0  3  0  0  0  0  0  0
  143.9560  138.4940  149.5740 C   0  0  0  0  0  0  0  0  0  0  0  0
  143.0330  137.8410  152.7120 C   0  0  0  0  0  1  0  0  0  0  0  0
  142.5890  138.4110  151.4910 O   0  0  0  0  0  0  0  0  0  0  0  0
  143.4660  137.2600  149.2340 O   0  0  0  0  0  0  0  0  0  0  0  0
  143.1850  137.0930  148.3550 H   0  0  0  0  0  0  0  0  0  0  0  0
  148.5710  141.0010  152.2100 C   0  0  0  0  0  2  0  0  0  0  0  0
  147.8920  139.7600  152.7450 C   0  0  0  0  0  0  0  0  0  0  0  0
  147.3600  138.8160  151.8630 C   0  0  0  0  0  3  0  0  0  0  0  0
  146.7690  137.6480  152.3460 C   0  0  0  0  0  3  0  0  0  0  0  0
  146.6980  137.4100  153.7230 C   0  0  0  0  0  0  0  0  0  0  0  0
  147.2040  138.3460  154.6300 C   0  0  0  0  0  0  0  0  0  0  0  0
  147.8050  139.5120  154.1250 C   0  0  0  0  0  3  0  0  0  0  0  0
  146.1300  136.2370  154.1420 O   0  0  0  0  0  0  0  0  0  0  0  0
  146.5820  135.4260  154.0150 H   0  0  0  0  0  0  0  0  0  0  0  0
  147.2050  138.2920  155.9970 O   0  0  0  0  0  0  0  0  0  0  0  0
  148.3130  137.6830  156.6430 C   0  0  0  0  0  1  0  0  0  0  0  0
  1 15  1  0  0  0  0
  1  2  1  1  0  0  0
  3  1  1  0  0  0  0
  4  3  1  0  0  0  0
  5  6  1  0  0  0  0
  5 12  1  0  0  0  0
  7  4  1  0  0  0  0
  7  6  2  0  0  0  0
  8  7  1  0  0  0  0
  9  8  2  0  0  0  0
  9 10  1  0  0  0  0
 10  5  2  0  0  0  0
 12 11  1  0  0  0  0
 13 10  1  0  0  0  0
 14 13  1  0  0  0  0
 15 16  1  0  0  0  0
 16 21  1  0  0  0  0
 17 18  1  0  0  0  0
 17 16  2  0  0  0  0
 18 19  2  0  0  0  0
 19 22  1  0  0  0  0
 19 20  1  0  0  0  0
 20 24  1  0  0  0  0
 21 20  2  0  0  0  0
 23 22  1  0  0  0  0
 24 25  1  0  0  0  0
M  END
>  <MODEL>
3

>  <REMARK>
 VINA RESULT:    -6.861      2.371      4.845
 INTER + INTRA:         -11.015
 INTER:                  -9.220
 INTRA:                  -1.795
 UNBOUND:                -0.944
  Name = CHEMBL3808412
  12 active torsions:
  status: ('A' for Active; 'I' for Inactive)
    1  A    between atoms: C_1  and  O_2
    2  A    between atoms: O_2  and  C_3
    3  A    between atoms: C_5  and  C_6
    4  A    between atoms: C_6  and  C_7
    5  A    between atoms: C_7  and  C_8
    6  A    between atoms: C_8  and  C_9
    7  A    between atoms: C_8  and  C_10
    8  A    between atoms: C_10  and  C_11
    9  A    between atoms: C_14  and  O_15
   10  A    between atoms: C_16  and  O_17
   11  A    between atoms: O_17  and  C_18
   12  A    between atoms: C_22  and  O_23
                            x       y       z     vdW  Elec       q    Type
                         _______ _______ _______ _____ _____    ______ ____

>  <TORSDO>
F 9

>  <SCORE>
-6.861

>  <RMSD_LB>
2.371

>  <RMSD_UB>
4.845

$$$$
CHEMBL3808412
 OpenBabel10162523393D

 25 26  0  0  1  0  0  0  0  0999 V2000
  135.5390  135.7670  152.0660 C   0  0  2  0  0  3  0  0  0  0  0  0
  136.4880  135.5640  150.8780 C   0  0  0  0  0  1  0  0  0  0  0  0
  135.8170  134.7340  153.1850 C   0  0  0  0  0  2  0  0  0  0  0  0
  134.7490  134.7270  154.2840 C   0  0  0  0  0  2  0  0  0  0  0  0
  136.6320  136.8710  156.8240 C   0  0  0  0  0  0  0  0  0  0  0  0
  136.1280  136.3770  155.6150 C   0  0  0  0  0  3  0  0  0  0  0  0
  135.2650  135.2690  155.5950 C   0  0  0  0  0  0  0  0  0  0  0  0
  134.8910  134.6670  156.8030 C   0  0  0  0  0  3  0  0  0  0  0  0
  135.3870  135.1490  158.0150 C   0  0  0  0  0  3  0  0  0  0  0  0
  136.2540  136.2420  158.0180 C   0  0  0  0  0  0  0  0  0  0  0  0
  138.8060  137.7690  156.4470 C   0  0  0  0  0  1  0  0  0  0  0  0
  137.4850  137.9360  156.9410 O   0  0  0  0  0  0  0  0  0  0  0  0
  136.7480  136.7090  159.2080 O   0  0  0  0  0  0  0  0  0  0  0  0
  137.3640  137.4160  159.2130 H   0  0  0  0  0  0  0  0  0  0  0  0
  134.0600  135.6550  151.6300 C   0  0  0  0  0  2  0  0  0  0  0  0
  133.8190  134.9490  150.3150 C   0  0  0  0  0  0  0  0  0  0  0  0
  133.9480  133.5590  150.2300 C   0  0  0  0  0  3  0  0  0  0  0  0
  133.6870  132.8950  149.0320 C   0  0  0  0  0  3  0  0  0  0  0  0
  133.2960  133.6120  147.8970 C   0  0  0  0  0  0  0  0  0  0  0  0
  133.1760  135.0050  147.9470 C   0  0  0  0  0  0  0  0  0  0  0  0
  133.4340  135.6570  149.1640 C   0  0  0  0  0  3  0  0  0  0  0  0
  133.0270  132.9080  146.7540 O   0  0  0  0  0  0  0  0  0  0  0  0
  132.4020  133.2340  146.1380 H   0  0  0  0  0  0  0  0  0  0  0  0
  132.8280  135.8660  146.9410 O   0  0  0  0  0  0  0  0  0  0  0  0
  132.8270  137.2570  147.2220 C   0  0  0  0  0  1  0  0  0  0  0  0
  1  2  1  6  0  0  0
  1  3  1  0  0  0  0
  3  4  1  0  0  0  0
  4  7  1  0  0  0  0
  5 12  1  0  0  0  0
  5 10  1  0  0  0  0
  6  5  2  0  0  0  0
  7  6  1  0  0  0  0
  7  8  2  0  0  0  0
  8  9  1  0  0  0  0
  9 10  2  0  0  0  0
 10 13  1  0  0  0  0
 11 12  1  0  0  0  0
 13 14  1  0  0  0  0
 15  1  1  0  0  0  0
 16 15  1  0  0  0  0
 17 16  1  0  0  0  0
 18 17  2  0  0  0  0
 19 20  2  0  0  0  0
 19 18  1  0  0  0  0
 20 21  1  0  0  0  0
 21 16  2  0  0  0  0
 22 19  1  0  0  0  0
 23 22  1  0  0  0  0
 24 25  1  0  0  0  0
 24 20  1  0  0  0  0
M  END
>  <MODEL>
4

>  <REMARK>
 VINA RESULT:    -6.839     11.333     13.793
 INTER + INTRA:         -10.982
 INTER:                 -10.299
 INTRA:                  -0.683
 UNBOUND:                -0.944
  Name = CHEMBL3808412
  12 active torsions:
  status: ('A' for Active; 'I' for Inactive)
    1  A    between atoms: C_1  and  O_2
    2  A    between atoms: O_2  and  C_3
    3  A    between atoms: C_5  and  C_6
    4  A    between atoms: C_6  and  C_7
    5  A    between atoms: C_7  and  C_8
    6  A    between atoms: C_8  and  C_9
    7  A    between atoms: C_8  and  C_10
    8  A    between atoms: C_10  and  C_11
    9  A    between atoms: C_14  and  O_15
   10  A    between atoms: C_16  and  O_17
   11  A    between atoms: O_17  and  C_18
   12  A    between atoms: C_22  and  O_23
                            x       y       z     vdW  Elec       q    Type
                         _______ _______ _______ _____ _____    ______ ____

>  <TORSDO>
F 9

>  <SCORE>
-6.839

>  <RMSD_LB>
11.333

>  <RMSD_UB>
13.793

$$$$
CHEMBL3808412
 OpenBabel10162523393D

 25 26  0  0  1  0  0  0  0  0999 V2000
  138.6390  136.9390  149.7310 C   0  0  2  0  0  3  0  0  0  0  0  0
  138.5770  137.7750  148.4460 C   0  0  0  0  0  1  0  0  0  0  0  0
  137.5570  135.8320  149.7280 C   0  0  0  0  0  2  0  0  0  0  0  0
  136.1720  136.3350  150.1470 C   0  0  0  0  0  2  0  0  0  0  0  0
  135.5000  135.0380  153.6770 C   0  0  0  0  0  0  0  0  0  0  0  0
  136.0140  135.7850  152.6110 C   0  0  0  0  0  3  0  0  0  0  0  0
  135.5920  135.5420  151.2930 C   0  0  0  0  0  0  0  0  0  0  0  0
  134.6310  134.5530  151.0510 C   0  0  0  0  0  3  0  0  0  0  0  0
  134.1120  133.8000  152.1050 C   0  0  0  0  0  3  0  0  0  0  0  0
  134.5510  134.0440  153.4060 C   0  0  0  0  0  0  0  0  0  0  0  0
  136.4230  136.4440  155.3650 C   0  0  0  0  0  1  0  0  0  0  0  0
  135.8590  135.1960  154.9900 O   0  0  0  0  0  0  0  0  0  0  0  0
  134.0470  133.2980  154.4400 O   0  0  0  0  0  0  0  0  0  0  0  0
  133.7820  132.4110  154.2920 H   0  0  0  0  0  0  0  0  0  0  0  0
  138.4550  137.8240  150.9860 C   0  0  0  0  0  2  0  0  0  0  0  0
  139.6220  137.8400  151.9490 C   0  0  0  0  0  0  0  0  0  0  0  0
  140.9030  137.5020  151.5050 C   0  0  0  0  0  3  0  0  0  0  0  0
  141.9920  137.5540  152.3750 C   0  0  0  0  0  3  0  0  0  0  0  0
  141.8140  137.9420  153.7070 C   0  0  0  0  0  0  0  0  0  0  0  0
  140.5400  138.2670  154.1850 C   0  0  0  0  0  0  0  0  0  0  0  0
  139.4560  138.2180  153.2910 C   0  0  0  0  0  3  0  0  0  0  0  0
  142.9200  138.0000  154.5120 O   0  0  0  0  0  0  0  0  0  0  0  0
  142.8430  138.3120  155.3910 H   0  0  0  0  0  0  0  0  0  0  0  0
  140.1760  138.6450  155.4480 O   0  0  0  0  0  0  0  0  0  0  0  0
  139.9010  137.6280  156.3990 C   0  0  0  0  0  1  0  0  0  0  0  0
  1  2  1  6  0  0  0
  1 15  1  0  0  0  0
  3  1  1  0  0  0  0
  3  4  1  0  0  0  0
  4  7  1  0  0  0  0
  5 12  1  0  0  0  0
  6  5  2  0  0  0  0
  7  6  1  0  0  0  0
  8  7  2  0  0  0  0
  8  9  1  0  0  0  0
  9 10  2  0  0  0  0
 10  5  1  0  0  0  0
 10 13  1  0  0  0  0
 12 11  1  0  0  0  0
 14 13  1  0  0  0  0
 15 16  1  0  0  0  0
 16 21  1  0  0  0  0
 17 16  2  0  0  0  0
 17 18  1  0  0  0  0
 18 19  2  0  0  0  0
 19 20  1  0  0  0  0
 19 22  1  0  0  0  0
 20 24  1  0  0  0  0
 21 20  2  0  0  0  0
 22 23  1  0  0  0  0
 24 25  1  0  0  0  0
M  END
>  <MODEL>
5

>  <REMARK>
 VINA RESULT:    -6.815      8.046     10.049
 INTER + INTRA:         -10.947
 INTER:                  -9.702
 INTRA:                  -1.245
 UNBOUND:                -0.944
  Name = CHEMBL3808412
  12 active torsions:
  status: ('A' for Active; 'I' for Inactive)
    1  A    between atoms: C_1  and  O_2
    2  A    between atoms: O_2  and  C_3
    3  A    between atoms: C_5  and  C_6
    4  A    between atoms: C_6  and  C_7
    5  A    between atoms: C_7  and  C_8
    6  A    between atoms: C_8  and  C_9
    7  A    between atoms: C_8  and  C_10
    8  A    between atoms: C_10  and  C_11
    9  A    between atoms: C_14  and  O_15
   10  A    between atoms: C_16  and  O_17
   11  A    between atoms: O_17  and  C_18
   12  A    between atoms: C_22  and  O_23
                            x       y       z     vdW  Elec       q    Type
                         _______ _______ _______ _____ _____    ______ ____

>  <TORSDO>
F 9

>  <SCORE>
-6.815

>  <RMSD_LB>
8.046

>  <RMSD_UB>
10.049

$$$$
CHEMBL3808412
 OpenBabel10162523393D

 25 26  0  0  1  0  0  0  0  0999 V2000
  135.2040  135.5640  152.1730 C   0  0  2  0  0  3  0  0  0  0  0  0
  136.1650  135.6390  150.9800 C   0  0  0  0  0  1  0  0  0  0  0  0
  135.7900  134.6900  153.3080 C   0  0  0  0  0  2  0  0  0  0  0  0
  135.0660  134.8670  154.6470 C   0  0  0  0  0  2  0  0  0  0  0  0
  136.3460  136.4090  157.8990 C   0  0  0  0  0  0  0  0  0  0  0  0
  135.6510  135.5950  156.9980 C   0  0  0  0  0  3  0  0  0  0  0  0
  135.8410  135.7310  155.6130 C   0  0  0  0  0  0  0  0  0  0  0  0
  136.7530  136.6790  155.1340 C   0  0  0  0  0  3  0  0  0  0  0  0
  137.4520  137.4980  156.0220 C   0  0  0  0  0  3  0  0  0  0  0  0
  137.2420  137.3610  157.3940 C   0  0  0  0  0  0  0  0  0  0  0  0
  134.9400  136.0220  159.7840 C   0  0  0  0  0  1  0  0  0  0  0  0
  136.2180  136.3570  159.2630 O   0  0  0  0  0  0  0  0  0  0  0  0
  137.9220  138.1710  158.2660 O   0  0  0  0  0  0  0  0  0  0  0  0
  138.8550  138.2450  158.2060 H   0  0  0  0  0  0  0  0  0  0  0  0
  133.8300  134.9930  151.7530 C   0  0  0  0  0  2  0  0  0  0  0  0
  133.3820  135.3360  150.3500 C   0  0  0  0  0  0  0  0  0  0  0  0
  132.9540  136.6320  150.0460 C   0  0  0  0  0  3  0  0  0  0  0  0
  132.5790  136.9680  148.7450 C   0  0  0  0  0  3  0  0  0  0  0  0
  132.6230  136.0090  147.7270 C   0  0  0  0  0  0  0  0  0  0  0  0
  133.0300  134.7000  148.0050 C   0  0  0  0  0  0  0  0  0  0  0  0
  133.4130  134.3820  149.3190 C   0  0  0  0  0  3  0  0  0  0  0  0
  132.2690  136.3990  146.4640 O   0  0  0  0  0  0  0  0  0  0  0  0
  131.5280  136.0110  146.0440 H   0  0  0  0  0  0  0  0  0  0  0  0
  133.1160  133.6360  147.1500 O   0  0  0  0  0  0  0  0  0  0  0  0
  134.2740  133.5210  146.3380 C   0  0  0  0  0  1  0  0  0  0  0  0
  1  2  1  6  0  0  0
  1  3  1  0  0  0  0
  3  4  1  0  0  0  0
  4  7  1  0  0  0  0
  5 12  1  0  0  0  0
  6  5  2  0  0  0  0
  7  6  1  0  0  0  0
  8  7  2  0  0  0  0
  8  9  1  0  0  0  0
  9 10  2  0  0  0  0
 10  5  1  0  0  0  0
 10 13  1  0  0  0  0
 12 11  1  0  0  0  0
 14 13  1  0  0  0  0
 15  1  1  0  0  0  0
 16 15  1  0  0  0  0
 17 16  1  0  0  0  0
 18 17  2  0  0  0  0
 19 20  2  0  0  0  0
 19 18  1  0  0  0  0
 20 21  1  0  0  0  0
 21 16  2  0  0  0  0
 22 19  1  0  0  0  0
 23 22  1  0  0  0  0
 24 20  1  0  0  0  0
 25 24  1  0  0  0  0
M  END
>  <MODEL>
6

>  <REMARK>
 VINA RESULT:    -6.702     11.369     13.836
 INTER + INTRA:         -10.781
 INTER:                 -10.152
 INTRA:                  -0.630
 UNBOUND:                -0.944
  Name = CHEMBL3808412
  12 active torsions:
  status: ('A' for Active; 'I' for Inactive)
    1  A    between atoms: C_1  and  O_2
    2  A    between atoms: O_2  and  C_3
    3  A    between atoms: C_5  and  C_6
    4  A    between atoms: C_6  and  C_7
    5  A    between atoms: C_7  and  C_8
    6  A    between atoms: C_8  and  C_9
    7  A    between atoms: C_8  and  C_10
    8  A    between atoms: C_10  and  C_11
    9  A    between atoms: C_14  and  O_15
   10  A    between atoms: C_16  and  O_17
   11  A    between atoms: O_17  and  C_18
   12  A    between atoms: C_22  and  O_23
                            x       y       z     vdW  Elec       q    Type
                         _______ _______ _______ _____ _____    ______ ____

>  <TORSDO>
F 9

>  <SCORE>
-6.702

>  <RMSD_LB>
11.369

>  <RMSD_UB>
13.836

$$$$
CHEMBL3808412
 OpenBabel10162523393D

 25 26  0  0  1  0  0  0  0  0999 V2000
  140.5360  137.3890  151.8480 C   0  0  2  0  0  3  0  0  0  0  0  0
  142.0500  137.4270  151.6070 C   0  0  0  0  0  1  0  0  0  0  0  0
  139.7560  137.4180  150.5120 C   0  0  0  0  0  2  0  0  0  0  0  0
  138.2930  137.8430  150.6710 C   0  0  0  0  0  2  0  0  0  0  0  0
  136.2480  134.9470  149.2480 C   0  0  0  0  0  0  0  0  0  0  0  0
  137.1480  136.0130  149.3520 C   0  0  0  0  0  3  0  0  0  0  0  0
  137.3390  136.6770  150.5750 C   0  0  0  0  0  0  0  0  0  0  0  0
  136.6320  136.2500  151.7060 C   0  0  0  0  0  3  0  0  0  0  0  0
  135.7300  135.1890  151.6160 C   0  0  0  0  0  3  0  0  0  0  0  0
  135.5410  134.5490  150.3910 C   0  0  0  0  0  0  0  0  0  0  0  0
  137.0960  133.6770  147.4200 C   0  0  0  0  0  1  0  0  0  0  0  0
  135.9880  134.2490  148.0980 O   0  0  0  0  0  0  0  0  0  0  0  0
  134.6490  133.5120  150.3010 O   0  0  0  0  0  0  0  0  0  0  0  0
  134.5760  132.8950  151.0030 H   0  0  0  0  0  0  0  0  0  0  0  0
  140.0770  138.5760  152.7280 C   0  0  0  0  0  2  0  0  0  0  0  0
  139.5440  138.2070  154.0940 C   0  0  0  0  0  0  0  0  0  0  0  0
  140.4240  138.0150  155.1630 C   0  0  0  0  0  3  0  0  0  0  0  0
  139.9380  137.7160  156.4360 C   0  0  0  0  0  3  0  0  0  0  0  0
  138.5620  137.6010  156.6590 C   0  0  0  0  0  0  0  0  0  0  0  0
  137.6590  137.7700  155.6040 C   0  0  0  0  0  0  0  0  0  0  0  0
  138.1650  138.0800  154.3300 C   0  0  0  0  0  3  0  0  0  0  0  0
  138.1390  137.3310  157.9320 O   0  0  0  0  0  0  0  0  0  0  0  0
  137.6070  136.5790  158.1000 H   0  0  0  0  0  0  0  0  0  0  0  0
  136.2940  137.6760  155.6300 O   0  0  0  0  0  0  0  0  0  0  0  0
  135.7040  136.4110  155.3710 C   0  0  0  0  0  1  0  0  0  0  0  0
  1  2  1  6  0  0  0
  1 15  1  0  0  0  0
  3  4  1  0  0  0  0
  3  1  1  0  0  0  0
  5  6  2  0  0  0  0
  5 10  1  0  0  0  0
  6  7  1  0  0  0  0
  7  4  1  0  0  0  0
  7  8  2  0  0  0  0
  9  8  1  0  0  0  0
 10  9  2  0  0  0  0
 11 12  1  0  0  0  0
 12  5  1  0  0  0  0
 13 10  1  0  0  0  0
 13 14  1  0  0  0  0
 15 16  1  0  0  0  0
 16 21  2  0  0  0  0
 16 17  1  0  0  0  0
 17 18  2  0  0  0  0
 18 19  1  0  0  0  0
 19 22  1  0  0  0  0
 20 24  1  0  0  0  0
 20 19  2  0  0  0  0
 21 20  1  0  0  0  0
 22 23  1  0  0  0  0
 25 24  1  0  0  0  0
M  END
>  <MODEL>
7

>  <REMARK>
 VINA RESULT:    -6.652      8.244     10.651
 INTER + INTRA:         -10.707
 INTER:                  -9.343
 INTRA:                  -1.365
 UNBOUND:                -0.944
  Name = CHEMBL3808412
  12 active torsions:
  status: ('A' for Active; 'I' for Inactive)
    1  A    between atoms: C_1  and  O_2
    2  A    between atoms: O_2  and  C_3
    3  A    between atoms: C_5  and  C_6
    4  A    between atoms: C_6  and  C_7
    5  A    between atoms: C_7  and  C_8
    6  A    between atoms: C_8  and  C_9
    7  A    between atoms: C_8  and  C_10
    8  A    between atoms: C_10  and  C_11
    9  A    between atoms: C_14  and  O_15
   10  A    between atoms: C_16  and  O_17
   11  A    between atoms: O_17  and  C_18
   12  A    between atoms: C_22  and  O_23
                            x       y       z     vdW  Elec       q    Type
                         _______ _______ _______ _____ _____    ______ ____

>  <TORSDO>
F 9

>  <SCORE>
-6.652

>  <RMSD_LB>
8.244

>  <RMSD_UB>
10.651

$$$$
CHEMBL3808412
 OpenBabel10162523393D

 25 26  0  0  1  0  0  0  0  0999 V2000
  145.4360  137.2540  149.6170 C   0  0  2  0  0  3  0  0  0  0  0  0
  145.8370  136.2170  148.5610 C   0  0  0  0  0  1  0  0  0  0  0  0
  146.5920  138.2450  149.8940 C   0  0  0  0  0  2  0  0  0  0  0  0
  146.1220  139.6920  150.0760 C   0  0  0  0  0  2  0  0  0  0  0  0
  147.9220  140.1260  153.4180 C   0  0  0  0  0  0  0  0  0  0  0  0
  147.4570  139.5690  152.2210 C   0  0  0  0  0  3  0  0  0  0  0  0
  146.6410  140.3110  151.3510 C   0  0  0  0  0  0  0  0  0  0  0  0
  146.3090  141.6320  151.6800 C   0  0  0  0  0  3  0  0  0  0  0  0
  146.7650  142.1990  152.8700 C   0  0  0  0  0  3  0  0  0  0  0  0
  147.5630  141.4450  153.7310 C   0  0  0  0  0  0  0  0  0  0  0  0
  148.2470  138.2260  154.8170 C   0  0  0  0  0  1  0  0  0  0  0  0
  148.7100  139.4770  154.3310 O   0  0  0  0  0  0  0  0  0  0  0  0
  148.0040  141.9990  154.9040 O   0  0  0  0  0  0  0  0  0  0  0  0
  148.8400  142.4210  154.9370 H   0  0  0  0  0  0  0  0  0  0  0  0
  145.0230  136.5760  150.9440 C   0  0  0  0  0  2  0  0  0  0  0  0
  143.8220  137.1780  151.6390 C   0  0  0  0  0  0  0  0  0  0  0  0
  142.5420  137.0040  151.1050 C   0  0  0  0  0  3  0  0  0  0  0  0
  141.4240  137.5210  151.7610 C   0  0  0  0  0  3  0  0  0  0  0  0
  141.5720  138.2230  152.9610 C   0  0  0  0  0  0  0  0  0  0  0  0
  142.8420  138.4290  153.5090 C   0  0  0  0  0  0  0  0  0  0  0  0
  143.9560  137.8940  152.8400 C   0  0  0  0  0  3  0  0  0  0  0  0
  140.4400  138.6870  153.5770 O   0  0  0  0  0  0  0  0  0  0  0  0
  140.1240  139.5480  153.3900 H   0  0  0  0  0  0  0  0  0  0  0  0
  143.1770  139.1020  154.6530 O   0  0  0  0  0  0  0  0  0  0  0  0
  144.5060  139.5830  154.7820 C   0  0  0  0  0  1  0  0  0  0  0  0
  1  2  1  6  0  0  0
  1  3  1  0  0  0  0
  1 15  1  0  0  0  0
  3  4  1  0  0  0  0
  4  7  1  0  0  0  0
  5 10  1  0  0  0  0
  5 12  1  0  0  0  0
  6  5  2  0  0  0  0
  7  8  2  0  0  0  0
  7  6  1  0  0  0  0
  8  9  1  0  0  0  0
  9 10  2  0  0  0  0
 10 13  1  0  0  0  0
 12 11  1  0  0  0  0
 13 14  1  0  0  0  0
 15 16  1  0  0  0  0
 16 21  1  0  0  0  0
 17 16  2  0  0  0  0
 17 18  1  0  0  0  0
 18 19  2  0  0  0  0
 19 20  1  0  0  0  0
 19 22  1  0  0  0  0
 20 24  1  0  0  0  0
 21 20  2  0  0  0  0
 23 22  1  0  0  0  0
 24 25  1  0  0  0  0
M  END
>  <MODEL>
8

>  <REMARK>
 VINA RESULT:    -6.583      2.265      4.649
 INTER + INTRA:         -10.606
 INTER:                  -8.942
 INTRA:                  -1.664
 UNBOUND:                -0.944
  Name = CHEMBL3808412
  12 active torsions:
  status: ('A' for Active; 'I' for Inactive)
    1  A    between atoms: C_1  and  O_2
    2  A    between atoms: O_2  and  C_3
    3  A    between atoms: C_5  and  C_6
    4  A    between atoms: C_6  and  C_7
    5  A    between atoms: C_7  and  C_8
    6  A    between atoms: C_8  and  C_9
    7  A    between atoms: C_8  and  C_10
    8  A    between atoms: C_10  and  C_11
    9  A    between atoms: C_14  and  O_15
   10  A    between atoms: C_16  and  O_17
   11  A    between atoms: O_17  and  C_18
   12  A    between atoms: C_22  and  O_23
                            x       y       z     vdW  Elec       q    Type
                         _______ _______ _______ _____ _____    ______ ____

>  <TORSDO>
F 9

>  <SCORE>
-6.583

>  <RMSD_LB>
2.265

>  <RMSD_UB>
4.649

$$$$
CHEMBL3808412
 OpenBabel10162523393D

 25 26  0  0  1  0  0  0  0  0999 V2000
  138.0830  136.1780  149.4810 C   0  0  2  0  0  3  0  0  0  0  0  0
  138.1610  134.7550  148.9140 C   0  0  0  0  0  1  0  0  0  0  0  0
  139.4960  136.7560  149.7360 C   0  0  0  0  0  2  0  0  0  0  0  0
  139.4780  138.1490  150.3740 C   0  0  0  0  0  2  0  0  0  0  0  0
  139.7990  138.6020  154.1540 C   0  0  0  0  0  0  0  0  0  0  0  0
  139.2690  138.5720  152.8590 C   0  0  0  0  0  3  0  0  0  0  0  0
  140.0510  138.1510  151.7710 C   0  0  0  0  0  0  0  0  0  0  0  0
  141.3710  137.7380  151.9920 C   0  0  0  0  0  3  0  0  0  0  0  0
  141.9120  137.7640  153.2780 C   0  0  0  0  0  3  0  0  0  0  0  0
  141.1270  138.1970  154.3460 C   0  0  0  0  0  0  0  0  0  0  0  0
  138.1740  138.1000  155.8220 C   0  0  0  0  0  1  0  0  0  0  0  0
  139.1180  139.0060  155.2710 O   0  0  0  0  0  0  0  0  0  0  0  0
  141.6620  138.2310  155.6080 O   0  0  0  0  0  0  0  0  0  0  0  0
  141.5080  138.9720  156.1620 H   0  0  0  0  0  0  0  0  0  0  0  0
  137.2770  136.2140  150.8010 C   0  0  0  0  0  2  0  0  0  0  0  0
  135.9280  135.5300  150.7600 C   0  0  0  0  0  0  0  0  0  0  0  0
  135.6780  134.4240  151.5780 C   0  0  0  0  0  3  0  0  0  0  0  0
  134.4240  133.8120  151.5790 C   0  0  0  0  0  3  0  0  0  0  0  0
  133.4020  134.2960  150.7560 C   0  0  0  0  0  0  0  0  0  0  0  0
  133.6290  135.3890  149.9130 C   0  0  0  0  0  0  0  0  0  0  0  0
  134.8950  135.9990  149.9330 C   0  0  0  0  0  3  0  0  0  0  0  0
  132.1830  133.6740  150.8140 O   0  0  0  0  0  0  0  0  0  0  0  0
  132.0610  132.8440  150.3990 H   0  0  0  0  0  0  0  0  0  0  0  0
  132.7630  135.9810  149.0350 O   0  0  0  0  0  0  0  0  0  0  0  0
  133.2550  137.0260  148.2100 C   0  0  0  0  0  1  0  0  0  0  0  0
  1  2  1  1  0  0  0
  1  3  1  0  0  0  0
  1 15  1  0  0  0  0
  3  4  1  0  0  0  0
  4  7  1  0  0  0  0
  5 10  1  0  0  0  0
  5 12  1  0  0  0  0
  6  5  2  0  0  0  0
  7  8  2  0  0  0  0
  7  6  1  0  0  0  0
  8  9  1  0  0  0  0
  9 10  2  0  0  0  0
 10 13  1  0  0  0  0
 12 11  1  0  0  0  0
 13 14  1  0  0  0  0
 16 15  1  0  0  0  0
 16 17  1  0  0  0  0
 17 18  2  0  0  0  0
 19 22  1  0  0  0  0
 19 18  1  0  0  0  0
 20 21  1  0  0  0  0
 20 19  2  0  0  0  0
 21 16  2  0  0  0  0
 23 22  1  0  0  0  0
 24 20  1  0  0  0  0
 25 24  1  0  0  0  0
M  END
>  <MODEL>
9

>  <REMARK>
 VINA RESULT:    -6.548      8.861     11.365
 INTER + INTRA:         -10.554
 INTER:                  -9.610
 INTRA:                  -0.944
 UNBOUND:                -0.944
  Name = CHEMBL3808412
  12 active torsions:
  status: ('A' for Active; 'I' for Inactive)
    1  A    between atoms: C_1  and  O_2
    2  A    between atoms: O_2  and  C_3
    3  A    between atoms: C_5  and  C_6
    4  A    between atoms: C_6  and  C_7
    5  A    between atoms: C_7  and  C_8
    6  A    between atoms: C_8  and  C_9
    7  A    between atoms: C_8  and  C_10
    8  A    between atoms: C_10  and  C_11
    9  A    between atoms: C_14  and  O_15
   10  A    between atoms: C_16  and  O_17
   11  A    between atoms: O_17  and  C_18
   12  A    between atoms: C_22  and  O_23
                            x       y       z     vdW  Elec       q    Type
                         _______ _______ _______ _____ _____    ______ ____

>  <TORSDO>
F 9

>  <SCORE>
-6.548

>  <RMSD_LB>
8.861

>  <RMSD_UB>
11.365

$$$$
