CHEMBL4925100
 OpenBabel10172500393D

 20 20  0  0  0  0  0  0  0  0999 V2000
  133.4010  134.4610  150.2420 C   0  0  0  0  0  0  0  0  0  0  0  0
  133.7730  133.1280  150.0600 C   0  0  0  0  0  3  0  0  0  0  0  0
  134.0050  132.6200  148.7770 C   0  0  0  0  0  3  0  0  0  0  0  0
  133.8680  133.4350  147.6460 C   0  0  0  0  0  0  0  0  0  0  0  0
  133.4810  134.7750  147.8210 C   0  0  0  0  0  0  0  0  0  0  0  0
  133.2810  135.2830  149.1150 C   0  0  0  0  0  3  0  0  0  0  0  0
  134.1190  133.0130  146.3680 O   0  0  0  0  0  0  0  0  0  0  0  0
  135.4690  133.0190  145.9190 C   0  0  0  0  0  1  0  0  0  0  0  0
  133.1460  135.0060  151.6200 C   0  0  0  0  0  2  0  0  0  0  0  0
  134.6900  134.8660  153.5050 C   0  0  0  0  0  0  0  0  0  0  0  0
  134.0620  133.9520  154.0350 O   0  0  0  0  0  0  0  0  0  0  0  0
  134.3690  135.3980  152.2750 N   0  0  0  0  0  0  0  0  0  0  0  0
  134.9740  136.0460  151.8450 H   0  0  0  0  0  0  0  0  0  0  0  0
  135.9060  135.5190  154.1610 C   0  0  0  0  0  2  0  0  0  0  0  0
  136.7170  137.2070  155.5990 C   0  0  0  0  0  1  0  0  0  0  0  0
  135.5910  136.7070  154.8820 O   0  0  0  0  0  0  0  0  0  0  0  0
  133.3270  135.7120  146.8340 O   0  0  0  0  0  0  0  0  0  0  0  0
  132.6370  136.8980  147.1950 C   0  0  0  0  0  3  0  0  0  0  0  0
  133.1440  137.9560  146.5130 F   0  0  0  0  0  0  0  0  0  0  0  0
  131.3550  136.7500  146.7580 F   0  0  0  0  0  0  0  0  0  0  0  0
  1  9  1  0  0  0  0
  2  1  1  0  0  0  0
  3  2  2  0  0  0  0
  4  5  2  0  0  0  0
  4  3  1  0  0  0  0
  5  6  1  0  0  0  0
  6  1  2  0  0  0  0
  7  4  1  0  0  0  0
  8  7  1  0  0  0  0
  9 12  1  0  0  0  0
 10 11  2  0  0  0  0
 10 14  1  0  0  0  0
 12 10  1  0  0  0  0
 13 12  1  0  0  0  0
 14 16  1  0  0  0  0
 16 15  1  0  0  0  0
 17 18  1  0  0  0  0
 17  5  1  0  0  0  0
 19 18  1  0  0  0  0
 20 18  1  0  0  0  0
M  END
>  <MODEL>
1

>  <REMARK>
 VINA RESULT:    -5.908      0.000      0.000
 INTER + INTRA:          -8.946
 INTER:                  -8.381
 INTRA:                  -0.565
 UNBOUND:                -0.621
  Name = CHEMBL4925100
  9 active torsions:
  status: ('A' for Active; 'I' for Inactive)
    1  A    between atoms: C_1  and  O_2
    2  A    between atoms: O_2  and  C_3
    3  A    between atoms: C_3  and  C_4
    4  A    between atoms: N_6  and  C_7
    5  A    between atoms: C_7  and  C_8
    6  A    between atoms: C_11  and  O_12
    7  A    between atoms: O_12  and  C_13
    8  A    between atoms: C_14  and  O_15
    9  A    between atoms: O_15  and  C_16
                            x       y       z     vdW  Elec       q    Type
                         _______ _______ _______ _____ _____    ______ ____

>  <TORSDO>
F 7

>  <SCORE>
-5.908

>  <RMSD_LB>
0.000

>  <RMSD_UB>
0.000

$$$$
CHEMBL4925100
 OpenBabel10172500393D

 20 20  0  0  0  0  0  0  0  0999 V2000
  136.3710  136.0780  152.8440 C   0  0  0  0  0  0  0  0  0  0  0  0
  135.6500  135.0550  153.4620 C   0  0  0  0  0  3  0  0  0  0  0  0
  134.8710  134.1730  152.7050 C   0  0  0  0  0  3  0  0  0  0  0  0
  134.7960  134.2950  151.3120 C   0  0  0  0  0  0  0  0  0  0  0  0
  135.5100  135.3290  150.6840 C   0  0  0  0  0  0  0  0  0  0  0  0
  136.3130  136.1910  151.4490 C   0  0  0  0  0  3  0  0  0  0  0  0
  134.0870  133.4410  150.5100 O   0  0  0  0  0  0  0  0  0  0  0  0
  132.7060  133.7140  150.3030 C   0  0  0  0  0  1  0  0  0  0  0  0
  137.2050  137.0300  153.6570 C   0  0  0  0  0  2  0  0  0  0  0  0
  137.0130  137.8540  155.9460 C   0  0  0  0  0  0  0  0  0  0  0  0
  136.9330  139.0260  155.5860 O   0  0  0  0  0  0  0  0  0  0  0  0
  137.0660  136.7900  155.0710 N   0  0  0  0  0  0  0  0  0  0  0  0
  137.0100  135.8680  155.4120 H   0  0  0  0  0  0  0  0  0  0  0  0
  137.0660  137.4450  157.4180 C   0  0  0  0  0  2  0  0  0  0  0  0
  136.0530  138.1780  159.4200 C   0  0  0  0  0  1  0  0  0  0  0  0
  136.8810  138.5340  158.3160 O   0  0  0  0  0  0  0  0  0  0  0  0
  135.5700  135.5760  149.3380 O   0  0  0  0  0  0  0  0  0  0  0  0
  134.6200  136.4960  148.8240 C   0  0  0  0  0  3  0  0  0  0  0  0
  133.7010  136.7950  149.7770 F   0  0  0  0  0  0  0  0  0  0  0  0
  135.2940  137.6540  148.5770 F   0  0  0  0  0  0  0  0  0  0  0  0
  1  2  1  0  0  0  0
  1  9  1  0  0  0  0
  3  2  2  0  0  0  0
  4  3  1  0  0  0  0
  5  4  2  0  0  0  0
  5  6  1  0  0  0  0
  6  1  2  0  0  0  0
  7  4  1  0  0  0  0
  8  7  1  0  0  0  0
  9 12  1  0  0  0  0
 10 14  1  0  0  0  0
 11 10  2  0  0  0  0
 12 13  1  0  0  0  0
 12 10  1  0  0  0  0
 14 16  1  0  0  0  0
 16 15  1  0  0  0  0
 17  5  1  0  0  0  0
 18 17  1  0  0  0  0
 18 19  1  0  0  0  0
 20 18  1  0  0  0  0
M  END
>  <MODEL>
2

>  <REMARK>
 VINA RESULT:    -5.732      2.793      4.232
 INTER + INTRA:          -8.698
 INTER:                  -8.092
 INTRA:                  -0.606
 UNBOUND:                -0.621
  Name = CHEMBL4925100
  9 active torsions:
  status: ('A' for Active; 'I' for Inactive)
    1  A    between atoms: C_1  and  O_2
    2  A    between atoms: O_2  and  C_3
    3  A    between atoms: C_3  and  C_4
    4  A    between atoms: N_6  and  C_7
    5  A    between atoms: C_7  and  C_8
    6  A    between atoms: C_11  and  O_12
    7  A    between atoms: O_12  and  C_13
    8  A    between atoms: C_14  and  O_15
    9  A    between atoms: O_15  and  C_16
                            x       y       z     vdW  Elec       q    Type
                         _______ _______ _______ _____ _____    ______ ____

>  <TORSDO>
F 7

>  <SCORE>
-5.732

>  <RMSD_LB>
2.793

>  <RMSD_UB>
4.232

$$$$
CHEMBL4925100
 OpenBabel10172500393D

 20 20  0  0  0  0  0  0  0  0999 V2000
  137.6460  137.1940  152.5370 C   0  0  0  0  0  0  0  0  0  0  0  0
  137.9560  137.2820  151.1790 C   0  0  0  0  0  3  0  0  0  0  0  0
  137.1170  136.7110  150.2160 C   0  0  0  0  0  3  0  0  0  0  0  0
  135.9490  136.0350  150.5920 C   0  0  0  0  0  0  0  0  0  0  0  0
  135.6360  135.9320  151.9570 C   0  0  0  0  0  0  0  0  0  0  0  0
  136.4690  136.5360  152.9140 C   0  0  0  0  0  3  0  0  0  0  0  0
  135.0640  135.4900  149.6990 O   0  0  0  0  0  0  0  0  0  0  0  0
  135.5090  134.3970  148.9050 C   0  0  0  0  0  1  0  0  0  0  0  0
  138.5490  137.8040  153.5730 C   0  0  0  0  0  2  0  0  0  0  0  0
  137.4970  138.2430  155.7310 C   0  0  0  0  0  0  0  0  0  0  0  0
  137.0230  139.3130  155.3550 O   0  0  0  0  0  0  0  0  0  0  0  0
  138.1940  137.3860  154.9050 N   0  0  0  0  0  0  0  0  0  0  0  0
  138.4480  136.4900  155.2270 H   0  0  0  0  0  0  0  0  0  0  0  0
  137.3670  137.7430  157.1690 C   0  0  0  0  0  2  0  0  0  0  0  0
  136.4110  138.0550  159.3050 C   0  0  0  0  0  1  0  0  0  0  0  0
  136.4530  138.5040  157.9530 O   0  0  0  0  0  0  0  0  0  0  0  0
  134.5270  135.3340  152.4950 O   0  0  0  0  0  0  0  0  0  0  0  0
  134.6730  133.9800  152.8940 C   0  0  0  0  0  3  0  0  0  0  0  0
  135.9020  133.5230  152.5430 F   0  0  0  0  0  0  0  0  0  0  0  0
  134.6440  133.9690  154.2560 F   0  0  0  0  0  0  0  0  0  0  0  0
  1  6  1  0  0  0  0
  1  9  1  0  0  0  0
  2  1  2  0  0  0  0
  3  4  2  0  0  0  0
  3  2  1  0  0  0  0
  4  5  1  0  0  0  0
  5 17  1  0  0  0  0
  5  6  2  0  0  0  0
  7  4  1  0  0  0  0
  8  7  1  0  0  0  0
  9 12  1  0  0  0  0
 10 14  1  0  0  0  0
 11 10  2  0  0  0  0
 12 13  1  0  0  0  0
 12 10  1  0  0  0  0
 14 16  1  0  0  0  0
 16 15  1  0  0  0  0
 17 18  1  0  0  0  0
 18 20  1  0  0  0  0
 19 18  1  0  0  0  0
M  END
>  <MODEL>
3

>  <REMARK>
 VINA RESULT:    -5.703      3.939      5.545
 INTER + INTRA:          -8.657
 INTER:                  -8.081
 INTRA:                  -0.576
 UNBOUND:                -0.621
  Name = CHEMBL4925100
  9 active torsions:
  status: ('A' for Active; 'I' for Inactive)
    1  A    between atoms: C_1  and  O_2
    2  A    between atoms: O_2  and  C_3
    3  A    between atoms: C_3  and  C_4
    4  A    between atoms: N_6  and  C_7
    5  A    between atoms: C_7  and  C_8
    6  A    between atoms: C_11  and  O_12
    7  A    between atoms: O_12  and  C_13
    8  A    between atoms: C_14  and  O_15
    9  A    between atoms: O_15  and  C_16
                            x       y       z     vdW  Elec       q    Type
                         _______ _______ _______ _____ _____    ______ ____

>  <TORSDO>
F 7

>  <SCORE>
-5.703

>  <RMSD_LB>
3.939

>  <RMSD_UB>
5.545

$$$$
CHEMBL4925100
 OpenBabel10172500393D

 20 20  0  0  0  0  0  0  0  0999 V2000
  139.9840  137.9360  152.9040 C   0  0  0  0  0  0  0  0  0  0  0  0
  140.0600  137.5560  151.5640 C   0  0  0  0  0  3  0  0  0  0  0  0
  141.2970  137.2980  150.9640 C   0  0  0  0  0  3  0  0  0  0  0  0
  142.4870  137.4170  151.6930 C   0  0  0  0  0  0  0  0  0  0  0  0
  142.4190  137.8100  153.0400 C   0  0  0  0  0  0  0  0  0  0  0  0
  141.1700  138.0370  153.6410 C   0  0  0  0  0  3  0  0  0  0  0  0
  143.7260  137.1400  151.1790 O   0  0  0  0  0  0  0  0  0  0  0  0
  143.8070  136.2190  150.0980 C   0  0  0  0  0  1  0  0  0  0  0  0
  138.6540  138.2180  153.5490 C   0  0  0  0  0  2  0  0  0  0  0  0
  137.7400  138.2360  155.8120 C   0  0  0  0  0  0  0  0  0  0  0  0
  136.9310  139.1230  155.5480 O   0  0  0  0  0  0  0  0  0  0  0  0
  138.5750  137.6630  154.8770 N   0  0  0  0  0  0  0  0  0  0  0  0
  139.1180  136.8770  155.1160 H   0  0  0  0  0  0  0  0  0  0  0  0
  137.9090  137.6680  157.2200 C   0  0  0  0  0  2  0  0  0  0  0  0
  136.4890  137.4790  159.0960 C   0  0  0  0  0  1  0  0  0  0  0  0
  137.1610  138.3690  158.2090 O   0  0  0  0  0  0  0  0  0  0  0  0
  143.4760  137.9490  153.9020 O   0  0  0  0  0  0  0  0  0  0  0  0
  143.7610  139.2680  154.3400 C   0  0  0  0  0  3  0  0  0  0  0  0
  144.7650  139.2460  155.2530 F   0  0  0  0  0  0  0  0  0  0  0  0
  144.2480  139.9410  153.2610 F   0  0  0  0  0  0  0  0  0  0  0  0
  1  9  1  0  0  0  0
  1  6  1  0  0  0  0
  2  1  2  0  0  0  0
  3  2  1  0  0  0  0
  3  4  2  0  0  0  0
  4  5  1  0  0  0  0
  5  6  2  0  0  0  0
  5 17  1  0  0  0  0
  7  4  1  0  0  0  0
  8  7  1  0  0  0  0
  9 12  1  0  0  0  0
 10 14  1  0  0  0  0
 11 10  2  0  0  0  0
 12 13  1  0  0  0  0
 12 10  1  0  0  0  0
 14 16  1  0  0  0  0
 16 15  1  0  0  0  0
 17 18  1  0  0  0  0
 18 19  1  0  0  0  0
 20 18  1  0  0  0  0
M  END
>  <MODEL>
4

>  <REMARK>
 VINA RESULT:    -5.675      8.292      9.461
 INTER + INTRA:          -8.618
 INTER:                  -8.036
 INTRA:                  -0.581
 UNBOUND:                -0.621
  Name = CHEMBL4925100
  9 active torsions:
  status: ('A' for Active; 'I' for Inactive)
    1  A    between atoms: C_1  and  O_2
    2  A    between atoms: O_2  and  C_3
    3  A    between atoms: C_3  and  C_4
    4  A    between atoms: N_6  and  C_7
    5  A    between atoms: C_7  and  C_8
    6  A    between atoms: C_11  and  O_12
    7  A    between atoms: O_12  and  C_13
    8  A    between atoms: C_14  and  O_15
    9  A    between atoms: O_15  and  C_16
                            x       y       z     vdW  Elec       q    Type
                         _______ _______ _______ _____ _____    ______ ____

>  <TORSDO>
F 7

>  <SCORE>
-5.675

>  <RMSD_LB>
8.292

>  <RMSD_UB>
9.461

$$$$
CHEMBL4925100
 OpenBabel10172500393D

 20 20  0  0  0  0  0  0  0  0999 V2000
  135.5530  135.6650  156.1340 C   0  0  0  0  0  0  0  0  0  0  0  0
  135.7740  135.3390  157.4730 C   0  0  0  0  0  3  0  0  0  0  0  0
  136.5620  136.1590  158.2870 C   0  0  0  0  0  3  0  0  0  0  0  0
  137.1490  137.3240  157.7780 C   0  0  0  0  0  0  0  0  0  0  0  0
  136.9410  137.6530  156.4280 C   0  0  0  0  0  0  0  0  0  0  0  0
  136.1230  136.8390  155.6270 C   0  0  0  0  0  3  0  0  0  0  0  0
  137.8970  138.1910  158.5300 O   0  0  0  0  0  0  0  0  0  0  0  0
  137.7070  138.1840  159.9400 C   0  0  0  0  0  1  0  0  0  0  0  0
  134.7090  134.7810  155.2570 C   0  0  0  0  0  2  0  0  0  0  0  0
  134.0060  134.9170  152.9240 C   0  0  0  0  0  0  0  0  0  0  0  0
  134.2340  133.7270  152.7180 O   0  0  0  0  0  0  0  0  0  0  0  0
  134.1290  135.5140  154.1600 N   0  0  0  0  0  0  0  0  0  0  0  0
  133.8210  136.4400  154.2930 H   0  0  0  0  0  0  0  0  0  0  0  0
  133.5620  135.8730  151.8180 C   0  0  0  0  0  2  0  0  0  0  0  0
  133.1770  135.7330  149.4930 C   0  0  0  0  0  1  0  0  0  0  0  0
  134.1240  135.5700  150.5450 O   0  0  0  0  0  0  0  0  0  0  0  0
  137.4160  138.7620  155.7780 O   0  0  0  0  0  0  0  0  0  0  0  0
  138.4860  138.5500  154.8720 C   0  0  0  0  0  3  0  0  0  0  0  0
  138.6830  139.6600  154.1170 F   0  0  0  0  0  0  0  0  0  0  0  0
  139.6120  138.4040  155.6260 F   0  0  0  0  0  0  0  0  0  0  0  0
  1  2  1  0  0  0  0
  2  3  2  0  0  0  0
  4  3  1  0  0  0  0
  4  7  1  0  0  0  0
  5  4  2  0  0  0  0
  6  1  2  0  0  0  0
  6  5  1  0  0  0  0
  7  8  1  0  0  0  0
  9  1  1  0  0  0  0
 10 12  1  0  0  0  0
 11 10  2  0  0  0  0
 12 13  1  0  0  0  0
 12  9  1  0  0  0  0
 14 10  1  0  0  0  0
 15 16  1  0  0  0  0
 16 14  1  0  0  0  0
 17  5  1  0  0  0  0
 18 20  1  0  0  0  0
 18 17  1  0  0  0  0
 19 18  1  0  0  0  0
M  END
>  <MODEL>
5

>  <REMARK>
 VINA RESULT:    -5.671      4.178      8.758
 INTER + INTRA:          -8.612
 INTER:                  -8.016
 INTRA:                  -0.596
 UNBOUND:                -0.621
  Name = CHEMBL4925100
  9 active torsions:
  status: ('A' for Active; 'I' for Inactive)
    1  A    between atoms: C_1  and  O_2
    2  A    between atoms: O_2  and  C_3
    3  A    between atoms: C_3  and  C_4
    4  A    between atoms: N_6  and  C_7
    5  A    between atoms: C_7  and  C_8
    6  A    between atoms: C_11  and  O_12
    7  A    between atoms: O_12  and  C_13
    8  A    between atoms: C_14  and  O_15
    9  A    between atoms: O_15  and  C_16
                            x       y       z     vdW  Elec       q    Type
                         _______ _______ _______ _____ _____    ______ ____

>  <TORSDO>
F 7

>  <SCORE>
-5.671

>  <RMSD_LB>
4.178

>  <RMSD_UB>
8.758

$$$$
CHEMBL4925100
 OpenBabel10172500393D

 20 20  0  0  0  0  0  0  0  0999 V2000
  135.0210  135.3320  151.4040 C   0  0  0  0  0  0  0  0  0  0  0  0
  134.8930  133.9450  151.3040 C   0  0  0  0  0  3  0  0  0  0  0  0
  134.0000  133.3740  150.3920 C   0  0  0  0  0  3  0  0  0  0  0  0
  133.2120  134.1780  149.5590 C   0  0  0  0  0  0  0  0  0  0  0  0
  133.3260  135.5750  149.6620 C   0  0  0  0  0  0  0  0  0  0  0  0
  134.2480  136.1380  150.5590 C   0  0  0  0  0  3  0  0  0  0  0  0
  132.3490  133.6830  148.6180 O   0  0  0  0  0  0  0  0  0  0  0  0
  132.9030  133.1680  147.4130 C   0  0  0  0  0  1  0  0  0  0  0  0
  135.9770  135.9470  152.3870 C   0  0  0  0  0  2  0  0  0  0  0  0
  134.9080  135.8080  154.5770 C   0  0  0  0  0  0  0  0  0  0  0  0
  134.0350  136.6190  154.2740 O   0  0  0  0  0  0  0  0  0  0  0  0
  135.8610  135.3480  153.6930 N   0  0  0  0  0  0  0  0  0  0  0  0
  136.4620  134.6130  153.9550 H   0  0  0  0  0  0  0  0  0  0  0  0
  135.0340  135.2180  155.9810 C   0  0  0  0  0  2  0  0  0  0  0  0
  133.7480  134.4700  157.8140 C   0  0  0  0  0  1  0  0  0  0  0  0
  133.8840  134.4880  156.3960 O   0  0  0  0  0  0  0  0  0  0  0  0
  132.6550  136.5030  148.9100 O   0  0  0  0  0  0  0  0  0  0  0  0
  133.1850  136.7710  147.6210 C   0  0  0  0  0  3  0  0  0  0  0  0
  132.3880  137.6520  146.9650 F   0  0  0  0  0  0  0  0  0  0  0  0
  134.3720  137.4110  147.8140 F   0  0  0  0  0  0  0  0  0  0  0  0
  1  9  1  0  0  0  0
  2  1  1  0  0  0  0
  3  2  2  0  0  0  0
  4  5  2  0  0  0  0
  4  3  1  0  0  0  0
  5  6  1  0  0  0  0
  6  1  2  0  0  0  0
  7  4  1  0  0  0  0
  8  7  1  0  0  0  0
  9 12  1  0  0  0  0
 10 14  1  0  0  0  0
 11 10  2  0  0  0  0
 12 13  1  0  0  0  0
 12 10  1  0  0  0  0
 14 16  1  0  0  0  0
 16 15  1  0  0  0  0
 17  5  1  0  0  0  0
 18 20  1  0  0  0  0
 18 17  1  0  0  0  0
 19 18  1  0  0  0  0
M  END
>  <MODEL>
6

>  <REMARK>
 VINA RESULT:    -5.640      1.951      2.484
 INTER + INTRA:          -8.569
 INTER:                  -8.186
 INTRA:                  -0.383
 UNBOUND:                -0.621
  Name = CHEMBL4925100
  9 active torsions:
  status: ('A' for Active; 'I' for Inactive)
    1  A    between atoms: C_1  and  O_2
    2  A    between atoms: O_2  and  C_3
    3  A    between atoms: C_3  and  C_4
    4  A    between atoms: N_6  and  C_7
    5  A    between atoms: C_7  and  C_8
    6  A    between atoms: C_11  and  O_12
    7  A    between atoms: O_12  and  C_13
    8  A    between atoms: C_14  and  O_15
    9  A    between atoms: O_15  and  C_16
                            x       y       z     vdW  Elec       q    Type
                         _______ _______ _______ _____ _____    ______ ____

>  <TORSDO>
F 7

>  <SCORE>
-5.640

>  <RMSD_LB>
1.951

>  <RMSD_UB>
2.484

$$$$
CHEMBL4925100
 OpenBabel10172500393D

 20 20  0  0  0  0  0  0  0  0999 V2000
  137.2720  136.6820  155.2880 C   0  0  0  0  0  0  0  0  0  0  0  0
  138.0460  136.8860  156.4310 C   0  0  0  0  0  3  0  0  0  0  0  0
  139.1660  137.7230  156.3960 C   0  0  0  0  0  3  0  0  0  0  0  0
  139.5380  138.3740  155.2130 C   0  0  0  0  0  0  0  0  0  0  0  0
  138.7710  138.1640  154.0550 C   0  0  0  0  0  0  0  0  0  0  0  0
  137.6310  137.3460  154.1080 C   0  0  0  0  0  3  0  0  0  0  0  0
  140.5970  139.2380  155.1200 O   0  0  0  0  0  0  0  0  0  0  0  0
  141.8720  138.6960  154.7950 C   0  0  0  0  0  1  0  0  0  0  0  0
  136.0700  135.7780  155.3240 C   0  0  0  0  0  2  0  0  0  0  0  0
  134.2770  135.1050  153.8100 C   0  0  0  0  0  0  0  0  0  0  0  0
  133.4240  135.1620  154.6930 O   0  0  0  0  0  0  0  0  0  0  0  0
  135.5940  135.4690  153.9990 N   0  0  0  0  0  0  0  0  0  0  0  0
  136.2070  135.5160  153.2300 H   0  0  0  0  0  0  0  0  0  0  0  0
  133.9690  134.6170  152.3950 C   0  0  0  0  0  2  0  0  0  0  0  0
  132.8250  135.8560  150.7430 C   0  0  0  0  0  1  0  0  0  0  0  0
  134.0670  135.6400  151.4090 O   0  0  0  0  0  0  0  0  0  0  0  0
  138.9760  138.7390  152.8280 O   0  0  0  0  0  0  0  0  0  0  0  0
  139.2830  137.8540  151.7620 C   0  0  0  0  0  3  0  0  0  0  0  0
  139.5160  138.5590  150.6260 F   0  0  0  0  0  0  0  0  0  0  0  0
  140.4640  137.2540  152.0810 F   0  0  0  0  0  0  0  0  0  0  0  0
  1  9  1  0  0  0  0
  1  2  1  0  0  0  0
  3  2  2  0  0  0  0
  4  3  1  0  0  0  0
  5  6  1  0  0  0  0
  5  4  2  0  0  0  0
  6  1  2  0  0  0  0
  7  4  1  0  0  0  0
  8  7  1  0  0  0  0
 10 12  1  0  0  0  0
 10 11  2  0  0  0  0
 12  9  1  0  0  0  0
 13 12  1  0  0  0  0
 14 10  1  0  0  0  0
 15 16  1  0  0  0  0
 16 14  1  0  0  0  0
 17  5  1  0  0  0  0
 18 20  1  0  0  0  0
 18 17  1  0  0  0  0
 19 18  1  0  0  0  0
M  END
>  <MODEL>
7

>  <REMARK>
 VINA RESULT:    -5.616      4.118      7.897
 INTER + INTRA:          -8.534
 INTER:                  -7.837
 INTRA:                  -0.697
 UNBOUND:                -0.621
  Name = CHEMBL4925100
  9 active torsions:
  status: ('A' for Active; 'I' for Inactive)
    1  A    between atoms: C_1  and  O_2
    2  A    between atoms: O_2  and  C_3
    3  A    between atoms: C_3  and  C_4
    4  A    between atoms: N_6  and  C_7
    5  A    between atoms: C_7  and  C_8
    6  A    between atoms: C_11  and  O_12
    7  A    between atoms: O_12  and  C_13
    8  A    between atoms: C_14  and  O_15
    9  A    between atoms: O_15  and  C_16
                            x       y       z     vdW  Elec       q    Type
                         _______ _______ _______ _____ _____    ______ ____

>  <TORSDO>
F 7

>  <SCORE>
-5.616

>  <RMSD_LB>
4.118

>  <RMSD_UB>
7.897

$$$$
CHEMBL4925100
 OpenBabel10172500393D

 20 20  0  0  0  0  0  0  0  0999 V2000
  144.5580  139.5260  152.9640 C   0  0  0  0  0  0  0  0  0  0  0  0
  144.0330  139.7900  151.6980 C   0  0  0  0  0  3  0  0  0  0  0  0
  144.4460  140.9130  150.9730 C   0  0  0  0  0  3  0  0  0  0  0  0
  145.3930  141.8000  151.5010 C   0  0  0  0  0  0  0  0  0  0  0  0
  145.9170  141.5480  152.7800 C   0  0  0  0  0  0  0  0  0  0  0  0
  145.5190  140.4010  153.4870 C   0  0  0  0  0  3  0  0  0  0  0  0
  145.8700  142.8930  150.8280 O   0  0  0  0  0  0  0  0  0  0  0  0
  146.7300  142.6680  149.7180 C   0  0  0  0  0  1  0  0  0  0  0  0
  144.1120  138.3220  153.7470 C   0  0  0  0  0  2  0  0  0  0  0  0
  141.6860  138.2810  154.0190 C   0  0  0  0  0  0  0  0  0  0  0  0
  141.5170  137.6370  152.9860 O   0  0  0  0  0  0  0  0  0  0  0  0
  142.9300  138.5970  154.5240 N   0  0  0  0  0  0  0  0  0  0  0  0
  143.0090  139.0120  155.4140 H   0  0  0  0  0  0  0  0  0  0  0  0
  140.5260  138.8090  154.8610 C   0  0  0  0  0  2  0  0  0  0  0  0
  138.1990  138.4250  154.9720 C   0  0  0  0  0  1  0  0  0  0  0  0
  139.4970  137.8470  155.0760 O   0  0  0  0  0  0  0  0  0  0  0  0
  146.8650  142.2920  153.4320 O   0  0  0  0  0  0  0  0  0  0  0  0
  148.1930  141.7960  153.3890 C   0  0  0  0  0  3  0  0  0  0  0  0
  148.8430  142.3010  152.3100 F   0  0  0  0  0  0  0  0  0  0  0  0
  148.8330  142.2980  154.4820 F   0  0  0  0  0  0  0  0  0  0  0  0
  1  6  1  0  0  0  0
  1  9  1  0  0  0  0
  2  1  2  0  0  0  0
  3  4  2  0  0  0  0
  3  2  1  0  0  0  0
  4  5  1  0  0  0  0
  5 17  1  0  0  0  0
  5  6  2  0  0  0  0
  7  4  1  0  0  0  0
  8  7  1  0  0  0  0
  9 12  1  0  0  0  0
 10 12  1  0  0  0  0
 10 14  1  0  0  0  0
 11 10  2  0  0  0  0
 12 13  1  0  0  0  0
 14 16  1  0  0  0  0
 15 16  1  0  0  0  0
 18 17  1  0  0  0  0
 18 20  1  0  0  0  0
 19 18  1  0  0  0  0
M  END
>  <MODEL>
8

>  <REMARK>
 VINA RESULT:    -5.553     10.477     13.176
 INTER + INTRA:          -8.446
 INTER:                  -7.777
 INTRA:                  -0.669
 UNBOUND:                -0.621
  Name = CHEMBL4925100
  9 active torsions:
  status: ('A' for Active; 'I' for Inactive)
    1  A    between atoms: C_1  and  O_2
    2  A    between atoms: O_2  and  C_3
    3  A    between atoms: C_3  and  C_4
    4  A    between atoms: N_6  and  C_7
    5  A    between atoms: C_7  and  C_8
    6  A    between atoms: C_11  and  O_12
    7  A    between atoms: O_12  and  C_13
    8  A    between atoms: C_14  and  O_15
    9  A    between atoms: O_15  and  C_16
                            x       y       z     vdW  Elec       q    Type
                         _______ _______ _______ _____ _____    ______ ____

>  <TORSDO>
F 7

>  <SCORE>
-5.553

>  <RMSD_LB>
10.477

>  <RMSD_UB>
13.176

$$$$
CHEMBL4925100
 OpenBabel10172500393D

 20 20  0  0  0  0  0  0  0  0999 V2000
  143.9440  138.5240  153.5310 C   0  0  0  0  0  0  0  0  0  0  0  0
  144.5890  137.2990  153.7100 C   0  0  0  0  0  3  0  0  0  0  0  0
  145.9150  137.2480  154.1540 C   0  0  0  0  0  3  0  0  0  0  0  0
  146.6260  138.4230  154.4270 C   0  0  0  0  0  0  0  0  0  0  0  0
  145.9880  139.6600  154.2380 C   0  0  0  0  0  0  0  0  0  0  0  0
  144.6470  139.7000  153.8220 C   0  0  0  0  0  3  0  0  0  0  0  0
  147.9100  138.4420  154.9020 O   0  0  0  0  0  0  0  0  0  0  0  0
  148.1550  137.8730  156.1830 C   0  0  0  0  0  1  0  0  0  0  0  0
  142.5200  138.5800  153.0500 C   0  0  0  0  0  2  0  0  0  0  0  0
  141.1070  138.4690  155.0360 C   0  0  0  0  0  0  0  0  0  0  0  0
  141.2340  139.6690  155.2730 O   0  0  0  0  0  0  0  0  0  0  0  0
  141.6320  137.8530  153.9210 N   0  0  0  0  0  0  0  0  0  0  0  0
  141.4000  136.9170  153.7200 H   0  0  0  0  0  0  0  0  0  0  0  0
  140.3480  137.5220  155.9650 C   0  0  0  0  0  2  0  0  0  0  0  0
  138.0390  137.7580  156.3960 C   0  0  0  0  0  1  0  0  0  0  0  0
  139.3550  138.1730  156.7520 O   0  0  0  0  0  0  0  0  0  0  0  0
  146.5230  140.8980  154.4810 O   0  0  0  0  0  0  0  0  0  0  0  0
  147.0600  141.5820  153.3600 C   0  0  0  0  0  3  0  0  0  0  0  0
  146.2390  142.6010  153.0010 F   0  0  0  0  0  0  0  0  0  0  0  0
  148.2200  142.1630  153.7770 F   0  0  0  0  0  0  0  0  0  0  0  0
  1  2  2  0  0  0  0
  1  6  1  0  0  0  0
  2  3  1  0  0  0  0
  3  4  2  0  0  0  0
  4  7  1  0  0  0  0
  5  4  1  0  0  0  0
  5 17  1  0  0  0  0
  6  5  2  0  0  0  0
  7  8  1  0  0  0  0
  9  1  1  0  0  0  0
  9 12  1  0  0  0  0
 10 11  2  0  0  0  0
 10 14  1  0  0  0  0
 12 10  1  0  0  0  0
 13 12  1  0  0  0  0
 14 16  1  0  0  0  0
 15 16  1  0  0  0  0
 18 20  1  0  0  0  0
 18 17  1  0  0  0  0
 19 18  1  0  0  0  0
M  END
>  <MODEL>
9

>  <REMARK>
 VINA RESULT:    -5.446      9.897     12.913
 INTER + INTRA:          -8.295
 INTER:                  -7.674
 INTRA:                  -0.621
 UNBOUND:                -0.621
  Name = CHEMBL4925100
  9 active torsions:
  status: ('A' for Active; 'I' for Inactive)
    1  A    between atoms: C_1  and  O_2
    2  A    between atoms: O_2  and  C_3
    3  A    between atoms: C_3  and  C_4
    4  A    between atoms: N_6  and  C_7
    5  A    between atoms: C_7  and  C_8
    6  A    between atoms: C_11  and  O_12
    7  A    between atoms: O_12  and  C_13
    8  A    between atoms: C_14  and  O_15
    9  A    between atoms: O_15  and  C_16
                            x       y       z     vdW  Elec       q    Type
                         _______ _______ _______ _____ _____    ______ ____

>  <TORSDO>
F 7

>  <SCORE>
-5.446

>  <RMSD_LB>
9.897

>  <RMSD_UB>
12.913

$$$$
