CHEMBL1289799
 OpenBabel10162523453D

 25 26  0  0  0  0  0  0  0  0999 V2000
  135.8470  135.4350  152.9030 C   0  0  0  0  0  0  0  0  0  0  0  0
  135.9850  136.4930  152.2810 O   0  0  0  0  0  0  0  0  0  0  0  0
  135.7720  135.5080  154.3940 C   0  0  0  0  0  0  0  0  0  0  0  0
  134.7590  134.7410  155.0030 C   0  0  0  0  0  3  0  0  0  0  0  0
  134.6360  134.6770  156.3950 C   0  0  0  0  0  0  0  0  0  0  0  0
  135.5210  135.3830  157.2120 C   0  0  0  0  0  0  0  0  0  0  0  0
  136.5210  136.1550  156.6050 C   0  0  0  0  0  3  0  0  0  0  0  0
  136.6550  136.2120  155.2140 C   0  0  0  0  0  0  0  0  0  0  0  0
  133.6390  133.9040  156.9210 O   0  0  0  0  0  0  0  0  0  0  0  0
  133.8480  133.0980  157.3510 H   0  0  0  0  0  0  0  0  0  0  0  0
  135.5710  135.4340  158.5770 O   0  0  0  0  0  0  0  0  0  0  0  0
  136.5700  134.6750  159.2440 C   0  0  0  0  0  1  0  0  0  0  0  0
  137.6940  136.9290  154.6950 O   0  0  0  0  0  0  0  0  0  0  0  0
  138.0590  137.6410  155.1820 H   0  0  0  0  0  0  0  0  0  0  0  0
  135.8370  134.1120  152.1650 C   0  0  0  0  0  2  0  0  0  0  0  0
  134.3650  134.0090  148.6420 C   0  0  0  0  0  0  0  0  0  0  0  0
  135.2700  134.1370  149.7000 C   0  0  0  0  0  3  0  0  0  0  0  0
  134.8380  134.0600  151.0340 C   0  0  0  0  0  0  0  0  0  0  0  0
  133.4730  133.8780  151.3000 C   0  0  0  0  0  3  0  0  0  0  0  0
  132.5580  133.7630  150.2550 C   0  0  0  0  0  3  0  0  0  0  0  0
  133.0070  133.8220  148.9360 C   0  0  0  0  0  0  0  0  0  0  0  0
  135.3870  132.9090  146.7890 C   0  0  0  0  0  1  0  0  0  0  0  0
  134.6990  134.0360  147.3130 O   0  0  0  0  0  0  0  0  0  0  0  0
  132.1100  133.6880  147.9090 O   0  0  0  0  0  0  0  0  0  0  0  0
  132.4160  133.6260  147.0250 H   0  0  0  0  0  0  0  0  0  0  0  0
  1  3  1  0  0  0  0
  2  1  2  0  0  0  0
  3  4  2  0  0  0  0
  3  8  1  0  0  0  0
  4  5  1  0  0  0  0
  5  9  1  0  0  0  0
  5  6  2  0  0  0  0
  6 11  1  0  0  0  0
  7  6  1  0  0  0  0
  8  7  2  0  0  0  0
  9 10  1  0  0  0  0
 11 12  1  0  0  0  0
 13 14  1  0  0  0  0
 13  8  1  0  0  0  0
 15  1  1  0  0  0  0
 16 21  2  0  0  0  0
 16 17  1  0  0  0  0
 17 18  2  0  0  0  0
 18 19  1  0  0  0  0
 18 15  1  0  0  0  0
 20 19  2  0  0  0  0
 21 20  1  0  0  0  0
 22 23  1  0  0  0  0
 23 16  1  0  0  0  0
 24 21  1  0  0  0  0
 25 24  1  0  0  0  0
M  END
>  <MODEL>
1

>  <REMARK>
 VINA RESULT:    -7.177      0.000      0.000
 INTER + INTRA:         -10.751
 INTER:                  -9.848
 INTRA:                  -0.903
 UNBOUND:                -0.846
  Name = CHEMBL1289799
  10 active torsions:
  status: ('A' for Active; 'I' for Inactive)
    1  A    between atoms: C_1  and  O_2
    2  A    between atoms: O_2  and  C_3
    3  A    between atoms: C_5  and  C_6
    4  A    between atoms: C_6  and  C_7
    5  A    between atoms: C_7  and  C_9
    6  A    between atoms: C_11  and  O_12
    7  A    between atoms: C_13  and  O_14
    8  A    between atoms: O_14  and  C_15
    9  A    between atoms: C_17  and  O_18
   10  A    between atoms: C_21  and  O_22
                            x       y       z     vdW  Elec       q    Type
                         _______ _______ _______ _____ _____    ______ ____

>  <TORSDO>
F 8

>  <SCORE>
-7.177

>  <RMSD_LB>
0.000

>  <RMSD_UB>
0.000

$$$$
CHEMBL1289799
 OpenBabel10162523453D

 25 26  0  0  0  0  0  0  0  0999 V2000
  143.4080  139.4000  151.4390 C   0  0  0  0  0  0  0  0  0  0  0  0
  142.9370  139.9340  150.4300 O   0  0  0  0  0  0  0  0  0  0  0  0
  144.4840  140.1310  152.1770 C   0  0  0  0  0  0  0  0  0  0  0  0
  144.8470  139.6010  153.4290 C   0  0  0  0  0  3  0  0  0  0  0  0
  145.8880  140.1600  154.1790 C   0  0  0  0  0  0  0  0  0  0  0  0
  146.5870  141.2670  153.6940 C   0  0  0  0  0  0  0  0  0  0  0  0
  146.2160  141.8020  152.4520 C   0  0  0  0  0  3  0  0  0  0  0  0
  145.1850  141.2370  151.6950 C   0  0  0  0  0  0  0  0  0  0  0  0
  146.1990  139.5890  155.3810 O   0  0  0  0  0  0  0  0  0  0  0  0
  146.1600  138.6580  155.4820 H   0  0  0  0  0  0  0  0  0  0  0  0
  147.6320  141.9380  154.2660 O   0  0  0  0  0  0  0  0  0  0  0  0
  148.9260  141.7770  153.7020 C   0  0  0  0  0  1  0  0  0  0  0  0
  144.9240  141.7680  150.4650 O   0  0  0  0  0  0  0  0  0  0  0  0
  144.9710  141.2260  149.7020 H   0  0  0  0  0  0  0  0  0  0  0  0
  142.9540  138.0150  151.8520 C   0  0  0  0  0  2  0  0  0  0  0  0
  140.0630  138.2940  154.3330 C   0  0  0  0  0  0  0  0  0  0  0  0
  141.3550  138.2380  153.7990 C   0  0  0  0  0  3  0  0  0  0  0  0
  141.5600  137.9850  152.4330 C   0  0  0  0  0  0  0  0  0  0  0  0
  140.4520  137.7600  151.6050 C   0  0  0  0  0  3  0  0  0  0  0  0
  139.1600  137.7980  152.1280 C   0  0  0  0  0  3  0  0  0  0  0  0
  138.9720  138.0700  153.4820 C   0  0  0  0  0  0  0  0  0  0  0  0
  139.8310  137.4920  156.5670 C   0  0  0  0  0  1  0  0  0  0  0  0
  139.7650  138.5680  155.6430 O   0  0  0  0  0  0  0  0  0  0  0  0
  137.7010  138.1270  153.9920 O   0  0  0  0  0  0  0  0  0  0  0  0
  137.0790  138.7310  153.6330 H   0  0  0  0  0  0  0  0  0  0  0  0
  1 15  1  0  0  0  0
  1  3  1  0  0  0  0
  2  1  2  0  0  0  0
  3  4  1  0  0  0  0
  4  5  2  0  0  0  0
  5  9  1  0  0  0  0
  6  5  1  0  0  0  0
  6 11  1  0  0  0  0
  7  6  2  0  0  0  0
  8  3  2  0  0  0  0
  8  7  1  0  0  0  0
  9 10  1  0  0  0  0
 12 11  1  0  0  0  0
 13  8  1  0  0  0  0
 14 13  1  0  0  0  0
 15 18  1  0  0  0  0
 16 23  1  0  0  0  0
 17 16  1  0  0  0  0
 18 17  2  0  0  0  0
 19 20  2  0  0  0  0
 19 18  1  0  0  0  0
 20 21  1  0  0  0  0
 21 24  1  0  0  0  0
 21 16  2  0  0  0  0
 23 22  1  0  0  0  0
 25 24  1  0  0  0  0
M  END
>  <MODEL>
2

>  <REMARK>
 VINA RESULT:    -7.050      8.138     10.667
 INTER + INTRA:         -10.576
 INTER:                  -9.682
 INTRA:                  -0.893
 UNBOUND:                -0.846
  Name = CHEMBL1289799
  10 active torsions:
  status: ('A' for Active; 'I' for Inactive)
    1  A    between atoms: C_1  and  O_2
    2  A    between atoms: O_2  and  C_3
    3  A    between atoms: C_5  and  C_6
    4  A    between atoms: C_6  and  C_7
    5  A    between atoms: C_7  and  C_9
    6  A    between atoms: C_11  and  O_12
    7  A    between atoms: C_13  and  O_14
    8  A    between atoms: O_14  and  C_15
    9  A    between atoms: C_17  and  O_18
   10  A    between atoms: C_21  and  O_22
                            x       y       z     vdW  Elec       q    Type
                         _______ _______ _______ _____ _____    ______ ____

>  <TORSDO>
F 8

>  <SCORE>
-7.050

>  <RMSD_LB>
8.138

>  <RMSD_UB>
10.667

$$$$
CHEMBL1289799
 OpenBabel10162523453D

 25 26  0  0  0  0  0  0  0  0999 V2000
  143.3270  139.3740  151.4790 C   0  0  0  0  0  0  0  0  0  0  0  0
  142.9260  139.8360  150.4060 O   0  0  0  0  0  0  0  0  0  0  0  0
  144.4000  140.1240  152.2030 C   0  0  0  0  0  0  0  0  0  0  0  0
  144.7710  139.6140  153.4620 C   0  0  0  0  0  3  0  0  0  0  0  0
  145.8100  140.1920  154.2010 C   0  0  0  0  0  0  0  0  0  0  0  0
  146.5000  141.2960  153.6970 C   0  0  0  0  0  0  0  0  0  0  0  0
  146.1220  141.8100  152.4490 C   0  0  0  0  0  3  0  0  0  0  0  0
  145.0920  141.2270  151.7030 C   0  0  0  0  0  0  0  0  0  0  0  0
  146.1280  139.6400  155.4100 O   0  0  0  0  0  0  0  0  0  0  0  0
  145.6180  139.8470  156.1680 H   0  0  0  0  0  0  0  0  0  0  0  0
  147.5420  141.9820  154.2560 O   0  0  0  0  0  0  0  0  0  0  0  0
  148.8600  141.6730  153.8260 C   0  0  0  0  0  1  0  0  0  0  0  0
  144.8240  141.7390  150.4660 O   0  0  0  0  0  0  0  0  0  0  0  0
  145.4620  142.2680  150.0310 H   0  0  0  0  0  0  0  0  0  0  0  0
  142.7930  138.0510  151.9880 C   0  0  0  0  0  2  0  0  0  0  0  0
  138.9960  137.7940  152.3150 C   0  0  0  0  0  0  0  0  0  0  0  0
  140.2860  137.7910  151.7740 C   0  0  0  0  0  3  0  0  0  0  0  0
  141.3970  138.1430  152.5580 C   0  0  0  0  0  0  0  0  0  0  0  0
  141.2000  138.5260  153.8920 C   0  0  0  0  0  3  0  0  0  0  0  0
  139.9170  138.5470  154.4390 C   0  0  0  0  0  3  0  0  0  0  0  0
  138.8270  138.1760  153.6540 C   0  0  0  0  0  0  0  0  0  0  0  0
  137.7600  137.8200  150.2770 C   0  0  0  0  0  1  0  0  0  0  0  0
  137.8590  137.4330  151.6390 O   0  0  0  0  0  0  0  0  0  0  0  0
  137.5690  138.1770  154.1970 O   0  0  0  0  0  0  0  0  0  0  0  0
  136.9510  138.8360  153.9480 H   0  0  0  0  0  0  0  0  0  0  0  0
  1 15  1  0  0  0  0
  1  3  1  0  0  0  0
  2  1  2  0  0  0  0
  3  4  1  0  0  0  0
  4  5  2  0  0  0  0
  5  9  1  0  0  0  0
  6  5  1  0  0  0  0
  6 11  1  0  0  0  0
  7  6  2  0  0  0  0
  8  3  2  0  0  0  0
  8  7  1  0  0  0  0
  9 10  1  0  0  0  0
 12 11  1  0  0  0  0
 13  8  1  0  0  0  0
 14 13  1  0  0  0  0
 15 18  1  0  0  0  0
 16 21  1  0  0  0  0
 17 16  2  0  0  0  0
 17 18  1  0  0  0  0
 18 19  2  0  0  0  0
 19 20  1  0  0  0  0
 21 24  1  0  0  0  0
 21 20  2  0  0  0  0
 22 23  1  0  0  0  0
 23 16  1  0  0  0  0
 25 24  1  0  0  0  0
M  END
>  <MODEL>
3

>  <REMARK>
 VINA RESULT:    -6.707      8.063     10.238
 INTER + INTRA:         -10.102
 INTER:                  -9.215
 INTRA:                  -0.886
 UNBOUND:                -0.846
  Name = CHEMBL1289799
  10 active torsions:
  status: ('A' for Active; 'I' for Inactive)
    1  A    between atoms: C_1  and  O_2
    2  A    between atoms: O_2  and  C_3
    3  A    between atoms: C_5  and  C_6
    4  A    between atoms: C_6  and  C_7
    5  A    between atoms: C_7  and  C_9
    6  A    between atoms: C_11  and  O_12
    7  A    between atoms: C_13  and  O_14
    8  A    between atoms: O_14  and  C_15
    9  A    between atoms: C_17  and  O_18
   10  A    between atoms: C_21  and  O_22
                            x       y       z     vdW  Elec       q    Type
                         _______ _______ _______ _____ _____    ______ ____

>  <TORSDO>
F 8

>  <SCORE>
-6.707

>  <RMSD_LB>
8.063

>  <RMSD_UB>
10.238

$$$$
CHEMBL1289799
 OpenBabel10162523453D

 25 26  0  0  0  0  0  0  0  0999 V2000
  139.3930  138.5410  154.8240 C   0  0  0  0  0  0  0  0  0  0  0  0
  139.0780  139.6900  154.4980 O   0  0  0  0  0  0  0  0  0  0  0  0
  138.2980  137.5330  154.9730 C   0  0  0  0  0  0  0  0  0  0  0  0
  138.1210  136.9940  156.2610 C   0  0  0  0  0  3  0  0  0  0  0  0
  137.0840  136.0950  156.5350 C   0  0  0  0  0  0  0  0  0  0  0  0
  136.2020  135.7110  155.5240 C   0  0  0  0  0  0  0  0  0  0  0  0
  136.3860  136.2400  154.2380 C   0  0  0  0  0  3  0  0  0  0  0  0
  137.4130  137.1480  153.9650 C   0  0  0  0  0  0  0  0  0  0  0  0
  136.9610  135.6180  157.8100 O   0  0  0  0  0  0  0  0  0  0  0  0
  137.1470  134.7190  157.9940 H   0  0  0  0  0  0  0  0  0  0  0  0
  135.1300  134.8660  155.5980 O   0  0  0  0  0  0  0  0  0  0  0  0
  133.9720  135.1770  154.8360 C   0  0  0  0  0  1  0  0  0  0  0  0
  137.4900  137.6740  152.7070 O   0  0  0  0  0  0  0  0  0  0  0  0
  138.3170  137.7250  152.2710 H   0  0  0  0  0  0  0  0  0  0  0  0
  140.8370  138.2040  155.1360 C   0  0  0  0  0  2  0  0  0  0  0  0
  143.8250  137.3940  152.8990 C   0  0  0  0  0  0  0  0  0  0  0  0
  143.0570  137.7460  154.0140 C   0  0  0  0  0  3  0  0  0  0  0  0
  141.6660  137.9110  153.9090 C   0  0  0  0  0  0  0  0  0  0  0  0
  141.0510  137.7450  152.6600 C   0  0  0  0  0  3  0  0  0  0  0  0
  141.8080  137.4090  151.5380 C   0  0  0  0  0  3  0  0  0  0  0  0
  143.1840  137.2290  151.6640 C   0  0  0  0  0  0  0  0  0  0  0  0
  145.8850  137.5420  154.0910 C   0  0  0  0  0  1  0  0  0  0  0  0
  145.1790  137.1780  152.9140 O   0  0  0  0  0  0  0  0  0  0  0  0
  143.9250  136.8780  150.5650 O   0  0  0  0  0  0  0  0  0  0  0  0
  143.6870  137.2010  149.7170 H   0  0  0  0  0  0  0  0  0  0  0  0
  1  3  1  0  0  0  0
  1 15  1  0  0  0  0
  2  1  2  0  0  0  0
  3  4  1  0  0  0  0
  4  5  2  0  0  0  0
  5  9  1  0  0  0  0
  6 11  1  0  0  0  0
  6  5  1  0  0  0  0
  7  6  2  0  0  0  0
  8  7  1  0  0  0  0
  8  3  2  0  0  0  0
  9 10  1  0  0  0  0
 12 11  1  0  0  0  0
 13  8  1  0  0  0  0
 14 13  1  0  0  0  0
 16 23  1  0  0  0  0
 16 17  1  0  0  0  0
 18 17  2  0  0  0  0
 18 15  1  0  0  0  0
 19 18  1  0  0  0  0
 20 21  1  0  0  0  0
 20 19  2  0  0  0  0
 21 16  2  0  0  0  0
 23 22  1  0  0  0  0
 24 21  1  0  0  0  0
 25 24  1  0  0  0  0
M  END
>  <MODEL>
4

>  <REMARK>
 VINA RESULT:    -6.476      4.912      7.617
 INTER + INTRA:          -9.782
 INTER:                  -8.982
 INTRA:                  -0.800
 UNBOUND:                -0.846
  Name = CHEMBL1289799
  10 active torsions:
  status: ('A' for Active; 'I' for Inactive)
    1  A    between atoms: C_1  and  O_2
    2  A    between atoms: O_2  and  C_3
    3  A    between atoms: C_5  and  C_6
    4  A    between atoms: C_6  and  C_7
    5  A    between atoms: C_7  and  C_9
    6  A    between atoms: C_11  and  O_12
    7  A    between atoms: C_13  and  O_14
    8  A    between atoms: O_14  and  C_15
    9  A    between atoms: C_17  and  O_18
   10  A    between atoms: C_21  and  O_22
                            x       y       z     vdW  Elec       q    Type
                         _______ _______ _______ _____ _____    ______ ____

>  <TORSDO>
F 8

>  <SCORE>
-6.476

>  <RMSD_LB>
4.912

>  <RMSD_UB>
7.617

$$$$
CHEMBL1289799
 OpenBabel10162523453D

 25 26  0  0  0  0  0  0  0  0999 V2000
  137.9120  137.7000  154.0160 C   0  0  0  0  0  0  0  0  0  0  0  0
  137.2950  137.2670  153.0370 O   0  0  0  0  0  0  0  0  0  0  0  0
  137.5430  137.1660  155.3630 C   0  0  0  0  0  0  0  0  0  0  0  0
  138.0060  137.9020  156.4700 C   0  0  0  0  0  3  0  0  0  0  0  0
  137.6650  137.5380  157.7780 C   0  0  0  0  0  0  0  0  0  0  0  0
  136.8550  136.4240  158.0080 C   0  0  0  0  0  0  0  0  0  0  0  0
  136.4040  135.6850  156.9050 C   0  0  0  0  0  3  0  0  0  0  0  0
  136.7330  136.0540  155.5970 C   0  0  0  0  0  0  0  0  0  0  0  0
  138.1380  138.3030  158.8070 O   0  0  0  0  0  0  0  0  0  0  0  0
  137.7900  138.1930  159.6700 H   0  0  0  0  0  0  0  0  0  0  0  0
  136.4060  135.9230  159.1980 O   0  0  0  0  0  0  0  0  0  0  0  0
  135.3150  136.5740  159.8340 C   0  0  0  0  0  1  0  0  0  0  0  0
  136.2020  135.3270  154.5700 O   0  0  0  0  0  0  0  0  0  0  0  0
  135.4920  134.7390  154.7320 H   0  0  0  0  0  0  0  0  0  0  0  0
  138.9490  138.7900  153.8440 C   0  0  0  0  0  2  0  0  0  0  0  0
  141.7960  137.3960  151.7140 C   0  0  0  0  0  0  0  0  0  0  0  0
  140.5240  137.8020  152.1290 C   0  0  0  0  0  3  0  0  0  0  0  0
  140.3070  138.2730  153.4350 C   0  0  0  0  0  0  0  0  0  0  0  0
  141.3810  138.3090  154.3360 C   0  0  0  0  0  3  0  0  0  0  0  0
  142.6510  137.8940  153.9380 C   0  0  0  0  0  3  0  0  0  0  0  0
  142.8530  137.4480  152.6330 C   0  0  0  0  0  0  0  0  0  0  0  0
  141.0310  136.6070  149.5980 C   0  0  0  0  0  1  0  0  0  0  0  0
  142.1090  136.9570  150.4540 O   0  0  0  0  0  0  0  0  0  0  0  0
  144.1060  137.0590  152.2370 O   0  0  0  0  0  0  0  0  0  0  0  0
  144.5780  137.5690  151.6070 H   0  0  0  0  0  0  0  0  0  0  0  0
  1  3  1  0  0  0  0
  2  1  2  0  0  0  0
  3  8  2  0  0  0  0
  3  4  1  0  0  0  0
  4  5  2  0  0  0  0
  5  6  1  0  0  0  0
  5  9  1  0  0  0  0
  6 11  1  0  0  0  0
  7  6  2  0  0  0  0
  8  7  1  0  0  0  0
  9 10  1  0  0  0  0
 11 12  1  0  0  0  0
 13 14  1  0  0  0  0
 13  8  1  0  0  0  0
 15  1  1  0  0  0  0
 16 17  2  0  0  0  0
 16 21  1  0  0  0  0
 17 18  1  0  0  0  0
 18 15  1  0  0  0  0
 18 19  2  0  0  0  0
 20 19  1  0  0  0  0
 21 20  2  0  0  0  0
 22 23  1  0  0  0  0
 23 16  1  0  0  0  0
 24 21  1  0  0  0  0
 25 24  1  0  0  0  0
M  END
>  <MODEL>
5

>  <REMARK>
 VINA RESULT:    -6.462      4.765      6.676
 INTER + INTRA:          -9.763
 INTER:                  -8.917
 INTRA:                  -0.847
 UNBOUND:                -0.846
  Name = CHEMBL1289799
  10 active torsions:
  status: ('A' for Active; 'I' for Inactive)
    1  A    between atoms: C_1  and  O_2
    2  A    between atoms: O_2  and  C_3
    3  A    between atoms: C_5  and  C_6
    4  A    between atoms: C_6  and  C_7
    5  A    between atoms: C_7  and  C_9
    6  A    between atoms: C_11  and  O_12
    7  A    between atoms: C_13  and  O_14
    8  A    between atoms: O_14  and  C_15
    9  A    between atoms: C_17  and  O_18
   10  A    between atoms: C_21  and  O_22
                            x       y       z     vdW  Elec       q    Type
                         _______ _______ _______ _____ _____    ______ ____

>  <TORSDO>
F 8

>  <SCORE>
-6.462

>  <RMSD_LB>
4.765

>  <RMSD_UB>
6.676

$$$$
CHEMBL1289799
 OpenBabel10162523453D

 25 26  0  0  0  0  0  0  0  0999 V2000
  134.4170  135.8810  150.9290 C   0  0  0  0  0  0  0  0  0  0  0  0
  133.5030  136.2170  151.6880 O   0  0  0  0  0  0  0  0  0  0  0  0
  134.2050  136.0620  149.4600 C   0  0  0  0  0  0  0  0  0  0  0  0
  135.1140  135.3980  148.6150 C   0  0  0  0  0  3  0  0  0  0  0  0
  134.9730  135.4390  147.2230 C   0  0  0  0  0  0  0  0  0  0  0  0
  133.9200  136.1500  146.6440 C   0  0  0  0  0  0  0  0  0  0  0  0
  133.0220  136.8200  147.4860 C   0  0  0  0  0  3  0  0  0  0  0  0
  133.1530  136.7710  148.8770 C   0  0  0  0  0  0  0  0  0  0  0  0
  135.8840  134.7620  146.4600 O   0  0  0  0  0  0  0  0  0  0  0  0
  136.4610  134.1420  146.8600 H   0  0  0  0  0  0  0  0  0  0  0  0
  133.6100  136.2940  145.3200 O   0  0  0  0  0  0  0  0  0  0  0  0
  132.8800  137.4450  144.9200 C   0  0  0  0  0  1  0  0  0  0  0  0
  132.2020  137.3910  149.6360 O   0  0  0  0  0  0  0  0  0  0  0  0
  132.4250  138.1510  150.1370 H   0  0  0  0  0  0  0  0  0  0  0  0
  135.6700  135.2350  151.4820 C   0  0  0  0  0  2  0  0  0  0  0  0
  137.2360  137.0340  154.4660 C   0  0  0  0  0  0  0  0  0  0  0  0
  136.3940  136.2270  153.6930 C   0  0  0  0  0  3  0  0  0  0  0  0
  136.5260  136.1760  152.2960 C   0  0  0  0  0  0  0  0  0  0  0  0
  137.4990  136.9690  151.6720 C   0  0  0  0  0  3  0  0  0  0  0  0
  138.3340  137.7900  152.4290 C   0  0  0  0  0  3  0  0  0  0  0  0
  138.2040  137.8130  153.8160 C   0  0  0  0  0  0  0  0  0  0  0  0
  137.5930  135.9700  156.5690 C   0  0  0  0  0  1  0  0  0  0  0  0
  137.2050  137.1210  155.8330 O   0  0  0  0  0  0  0  0  0  0  0  0
  139.0390  138.6040  154.5620 O   0  0  0  0  0  0  0  0  0  0  0  0
  139.6610  139.1610  154.1350 H   0  0  0  0  0  0  0  0  0  0  0  0
  1 15  1  0  0  0  0
  1  2  2  0  0  0  0
  3  1  1  0  0  0  0
  4  3  2  0  0  0  0
  5  4  1  0  0  0  0
  6  5  2  0  0  0  0
  6  7  1  0  0  0  0
  7  8  2  0  0  0  0
  8  3  1  0  0  0  0
  8 13  1  0  0  0  0
  9 10  1  0  0  0  0
  9  5  1  0  0  0  0
 11  6  1  0  0  0  0
 12 11  1  0  0  0  0
 13 14  1  0  0  0  0
 15 18  1  0  0  0  0
 16 23  1  0  0  0  0
 17 16  2  0  0  0  0
 18 17  1  0  0  0  0
 19 18  2  0  0  0  0
 19 20  1  0  0  0  0
 20 21  2  0  0  0  0
 21 16  1  0  0  0  0
 21 24  1  0  0  0  0
 23 22  1  0  0  0  0
 25 24  1  0  0  0  0
M  END
>  <MODEL>
6

>  <REMARK>
 VINA RESULT:    -6.352      2.584      8.401
 INTER + INTRA:          -9.612
 INTER:                  -8.767
 INTRA:                  -0.845
 UNBOUND:                -0.846
  Name = CHEMBL1289799
  10 active torsions:
  status: ('A' for Active; 'I' for Inactive)
    1  A    between atoms: C_1  and  O_2
    2  A    between atoms: O_2  and  C_3
    3  A    between atoms: C_5  and  C_6
    4  A    between atoms: C_6  and  C_7
    5  A    between atoms: C_7  and  C_9
    6  A    between atoms: C_11  and  O_12
    7  A    between atoms: C_13  and  O_14
    8  A    between atoms: O_14  and  C_15
    9  A    between atoms: C_17  and  O_18
   10  A    between atoms: C_21  and  O_22
                            x       y       z     vdW  Elec       q    Type
                         _______ _______ _______ _____ _____    ______ ____

>  <TORSDO>
F 8

>  <SCORE>
-6.352

>  <RMSD_LB>
2.584

>  <RMSD_UB>
8.401

$$$$
CHEMBL1289799
 OpenBabel10162523453D

 25 26  0  0  0  0  0  0  0  0999 V2000
  144.7880  140.5260  150.5170 C   0  0  0  0  0  0  0  0  0  0  0  0
  143.8040  140.0270  151.0730 O   0  0  0  0  0  0  0  0  0  0  0  0
  145.6100  139.6440  149.6330 C   0  0  0  0  0  0  0  0  0  0  0  0
  145.8660  140.1320  148.3370 C   0  0  0  0  0  3  0  0  0  0  0  0
  146.6810  139.4250  147.4440 C   0  0  0  0  0  0  0  0  0  0  0  0
  147.2550  138.2110  147.8270 C   0  0  0  0  0  0  0  0  0  0  0  0
  146.9890  137.7220  149.1140 C   0  0  0  0  0  3  0  0  0  0  0  0
  146.1860  138.4320  150.0120 C   0  0  0  0  0  0  0  0  0  0  0  0
  146.8990  139.9600  146.2060 O   0  0  0  0  0  0  0  0  0  0  0  0
  146.4950  139.5770  145.4520 H   0  0  0  0  0  0  0  0  0  0  0  0
  148.0810  137.3920  147.1110 O   0  0  0  0  0  0  0  0  0  0  0  0
  148.3540  136.0950  147.6240 C   0  0  0  0  0  1  0  0  0  0  0  0
  146.0270  137.9270  151.2710 O   0  0  0  0  0  0  0  0  0  0  0  0
  145.8710  137.0120  151.3920 H   0  0  0  0  0  0  0  0  0  0  0  0
  145.1760  141.9630  150.7980 C   0  0  0  0  0  2  0  0  0  0  0  0
  148.2230  141.7870  153.0960 C   0  0  0  0  0  0  0  0  0  0  0  0
  146.9050  141.7260  152.6290 C   0  0  0  0  0  3  0  0  0  0  0  0
  146.5860  142.1160  151.3180 C   0  0  0  0  0  0  0  0  0  0  0  0
  147.6020  142.5970  150.4810 C   0  0  0  0  0  3  0  0  0  0  0  0
  148.9170  142.6770  150.9390 C   0  0  0  0  0  3  0  0  0  0  0  0
  149.2210  142.2670  152.2360 C   0  0  0  0  0  0  0  0  0  0  0  0
  148.3790  140.0520  154.7240 C   0  0  0  0  0  1  0  0  0  0  0  0
  148.6330  141.3960  154.3440 O   0  0  0  0  0  0  0  0  0  0  0  0
  150.5160  142.3260  152.6790 O   0  0  0  0  0  0  0  0  0  0  0  0
  151.2220  142.3420  152.0620 H   0  0  0  0  0  0  0  0  0  0  0  0
  1 15  1  0  0  0  0
  1  2  2  0  0  0  0
  3  8  1  0  0  0  0
  3  1  1  0  0  0  0
  4  3  2  0  0  0  0
  5  6  2  0  0  0  0
  5  4  1  0  0  0  0
  6  7  1  0  0  0  0
  7  8  2  0  0  0  0
  8 13  1  0  0  0  0
  9  5  1  0  0  0  0
 10  9  1  0  0  0  0
 11 12  1  0  0  0  0
 11  6  1  0  0  0  0
 13 14  1  0  0  0  0
 15 18  1  0  0  0  0
 16 23  1  0  0  0  0
 17 16  1  0  0  0  0
 18 17  2  0  0  0  0
 19 20  2  0  0  0  0
 19 18  1  0  0  0  0
 20 21  1  0  0  0  0
 21 24  1  0  0  0  0
 21 16  2  0  0  0  0
 23 22  1  0  0  0  0
 25 24  1  0  0  0  0
M  END
>  <MODEL>
7

>  <REMARK>
 VINA RESULT:    -6.258     12.232     15.200
 INTER + INTRA:          -9.482
 INTER:                  -8.318
 INTRA:                  -1.164
 UNBOUND:                -0.846
  Name = CHEMBL1289799
  10 active torsions:
  status: ('A' for Active; 'I' for Inactive)
    1  A    between atoms: C_1  and  O_2
    2  A    between atoms: O_2  and  C_3
    3  A    between atoms: C_5  and  C_6
    4  A    between atoms: C_6  and  C_7
    5  A    between atoms: C_7  and  C_9
    6  A    between atoms: C_11  and  O_12
    7  A    between atoms: C_13  and  O_14
    8  A    between atoms: O_14  and  C_15
    9  A    between atoms: C_17  and  O_18
   10  A    between atoms: C_21  and  O_22
                            x       y       z     vdW  Elec       q    Type
                         _______ _______ _______ _____ _____    ______ ____

>  <TORSDO>
F 8

>  <SCORE>
-6.258

>  <RMSD_LB>
12.232

>  <RMSD_UB>
15.200

$$$$
CHEMBL1289799
 OpenBabel10162523453D

 25 26  0  0  0  0  0  0  0  0999 V2000
  136.5610  135.6720  148.7880 C   0  0  0  0  0  0  0  0  0  0  0  0
  137.6660  136.2220  148.8230 O   0  0  0  0  0  0  0  0  0  0  0  0
  136.3910  134.5080  147.8650 C   0  0  0  0  0  0  0  0  0  0  0  0
  135.0960  134.3090  147.3480 C   0  0  0  0  0  3  0  0  0  0  0  0
  134.8330  133.2940  146.4220 C   0  0  0  0  0  0  0  0  0  0  0  0
  135.8590  132.4490  145.9950 C   0  0  0  0  0  0  0  0  0  0  0  0
  137.1460  132.6400  146.5190 C   0  0  0  0  0  3  0  0  0  0  0  0
  137.4140  133.6620  147.4350 C   0  0  0  0  0  0  0  0  0  0  0  0
  133.5570  133.1630  145.9510 O   0  0  0  0  0  0  0  0  0  0  0  0
  133.3630  133.3730  145.0580 H   0  0  0  0  0  0  0  0  0  0  0  0
  135.8030  131.4210  145.0950 O   0  0  0  0  0  0  0  0  0  0  0  0
  136.0140  131.7160  143.7210 C   0  0  0  0  0  1  0  0  0  0  0  0
  138.7040  133.8320  147.8500 O   0  0  0  0  0  0  0  0  0  0  0  0
  139.3090  133.1180  147.8010 H   0  0  0  0  0  0  0  0  0  0  0  0
  135.4080  136.2230  149.6010 C   0  0  0  0  0  2  0  0  0  0  0  0
  135.4860  134.9120  153.1880 C   0  0  0  0  0  0  0  0  0  0  0  0
  135.8210  135.6030  152.0180 C   0  0  0  0  0  3  0  0  0  0  0  0
  135.0940  135.4070  150.8320 C   0  0  0  0  0  0  0  0  0  0  0  0
  134.0370  134.4860  150.8220 C   0  0  0  0  0  3  0  0  0  0  0  0
  133.7030  133.7810  151.9770 C   0  0  0  0  0  3  0  0  0  0  0  0
  134.4210  134.0010  153.1510 C   0  0  0  0  0  0  0  0  0  0  0  0
  135.7900  136.2160  155.1610 C   0  0  0  0  0  1  0  0  0  0  0  0
  136.1140  135.0640  154.3970 O   0  0  0  0  0  0  0  0  0  0  0  0
  134.0800  133.3220  154.2920 O   0  0  0  0  0  0  0  0  0  0  0  0
  133.6590  133.7740  154.9980 H   0  0  0  0  0  0  0  0  0  0  0  0
  1  2  2  0  0  0  0
  1 15  1  0  0  0  0
  3  1  1  0  0  0  0
  4  3  2  0  0  0  0
  5  4  1  0  0  0  0
  6  5  2  0  0  0  0
  6  7  1  0  0  0  0
  7  8  2  0  0  0  0
  8 13  1  0  0  0  0
  8  3  1  0  0  0  0
  9  5  1  0  0  0  0
 10  9  1  0  0  0  0
 11  6  1  0  0  0  0
 12 11  1  0  0  0  0
 14 13  1  0  0  0  0
 15 18  1  0  0  0  0
 16 23  1  0  0  0  0
 17 16  2  0  0  0  0
 18 17  1  0  0  0  0
 19 18  2  0  0  0  0
 19 20  1  0  0  0  0
 20 21  2  0  0  0  0
 21 16  1  0  0  0  0
 21 24  1  0  0  0  0
 23 22  1  0  0  0  0
 24 25  1  0  0  0  0
M  END
>  <MODEL>
8

>  <REMARK>
 VINA RESULT:    -6.182      2.210      8.055
 INTER + INTRA:          -9.377
 INTER:                  -8.423
 INTRA:                  -0.954
 UNBOUND:                -0.846
  Name = CHEMBL1289799
  10 active torsions:
  status: ('A' for Active; 'I' for Inactive)
    1  A    between atoms: C_1  and  O_2
    2  A    between atoms: O_2  and  C_3
    3  A    between atoms: C_5  and  C_6
    4  A    between atoms: C_6  and  C_7
    5  A    between atoms: C_7  and  C_9
    6  A    between atoms: C_11  and  O_12
    7  A    between atoms: C_13  and  O_14
    8  A    between atoms: O_14  and  C_15
    9  A    between atoms: C_17  and  O_18
   10  A    between atoms: C_21  and  O_22
                            x       y       z     vdW  Elec       q    Type
                         _______ _______ _______ _____ _____    ______ ____

>  <TORSDO>
F 8

>  <SCORE>
-6.182

>  <RMSD_LB>
2.210

>  <RMSD_UB>
8.055

$$$$
CHEMBL1289799
 OpenBabel10162523453D

 25 26  0  0  0  0  0  0  0  0999 V2000
  141.2150  138.6410  151.8750 C   0  0  0  0  0  0  0  0  0  0  0  0
  140.6420  139.2830  150.9890 O   0  0  0  0  0  0  0  0  0  0  0  0
  140.4530  138.3460  153.1270 C   0  0  0  0  0  0  0  0  0  0  0  0
  141.2150  138.2390  154.3070 C   0  0  0  0  0  3  0  0  0  0  0  0
  140.6040  138.0340  155.5490 C   0  0  0  0  0  0  0  0  0  0  0  0
  139.2150  137.9280  155.6390 C   0  0  0  0  0  0  0  0  0  0  0  0
  138.4580  138.0240  154.4630 C   0  0  0  0  0  3  0  0  0  0  0  0
  139.0650  138.2410  153.2220 C   0  0  0  0  0  0  0  0  0  0  0  0
  141.4010  137.9510  156.6560 O   0  0  0  0  0  0  0  0  0  0  0  0
  141.2330  137.2970  157.3060 H   0  0  0  0  0  0  0  0  0  0  0  0
  138.4410  137.7450  156.7510 O   0  0  0  0  0  0  0  0  0  0  0  0
  137.0310  137.6690  156.5860 C   0  0  0  0  0  1  0  0  0  0  0  0
  138.2610  138.3920  152.1290 O   0  0  0  0  0  0  0  0  0  0  0  0
  137.3330  138.4670  152.2380 H   0  0  0  0  0  0  0  0  0  0  0  0
  142.6670  138.2420  151.7100 C   0  0  0  0  0  2  0  0  0  0  0  0
  145.3370  140.5810  153.1240 C   0  0  0  0  0  0  0  0  0  0  0  0
  144.3840  139.5620  153.0180 C   0  0  0  0  0  3  0  0  0  0  0  0
  143.6290  139.3990  151.8450 C   0  0  0  0  0  0  0  0  0  0  0  0
  143.8200  140.2900  150.7800 C   0  0  0  0  0  3  0  0  0  0  0  0
  144.7560  141.3190  150.8780 C   0  0  0  0  0  3  0  0  0  0  0  0
  145.5110  141.4550  152.0420 C   0  0  0  0  0  0  0  0  0  0  0  0
  147.1830  139.8580  154.4480 C   0  0  0  0  0  1  0  0  0  0  0  0
  146.1420  140.7940  154.2130 O   0  0  0  0  0  0  0  0  0  0  0  0
  146.4460  142.4540  152.1300 O   0  0  0  0  0  0  0  0  0  0  0  0
  147.2070  142.3370  152.6660 H   0  0  0  0  0  0  0  0  0  0  0  0
  1  3  1  0  0  0  0
  2  1  2  0  0  0  0
  3  8  2  0  0  0  0
  3  4  1  0  0  0  0
  4  5  2  0  0  0  0
  5  6  1  0  0  0  0
  5  9  1  0  0  0  0
  6 11  1  0  0  0  0
  7  6  2  0  0  0  0
  8  7  1  0  0  0  0
  9 10  1  0  0  0  0
 12 11  1  0  0  0  0
 13 14  1  0  0  0  0
 13  8  1  0  0  0  0
 15 18  1  0  0  0  0
 15  1  1  0  0  0  0
 16 23  1  0  0  0  0
 17 16  1  0  0  0  0
 18 17  2  0  0  0  0
 19 20  2  0  0  0  0
 19 18  1  0  0  0  0
 20 21  1  0  0  0  0
 21 24  1  0  0  0  0
 21 16  2  0  0  0  0
 23 22  1  0  0  0  0
 24 25  1  0  0  0  0
M  END
>  <MODEL>
9

>  <REMARK>
 VINA RESULT:    -6.114      7.187      9.998
 INTER + INTRA:          -9.284
 INTER:                  -8.438
 INTRA:                  -0.846
 UNBOUND:                -0.846
  Name = CHEMBL1289799
  10 active torsions:
  status: ('A' for Active; 'I' for Inactive)
    1  A    between atoms: C_1  and  O_2
    2  A    between atoms: O_2  and  C_3
    3  A    between atoms: C_5  and  C_6
    4  A    between atoms: C_6  and  C_7
    5  A    between atoms: C_7  and  C_9
    6  A    between atoms: C_11  and  O_12
    7  A    between atoms: C_13  and  O_14
    8  A    between atoms: O_14  and  C_15
    9  A    between atoms: C_17  and  O_18
   10  A    between atoms: C_21  and  O_22
                            x       y       z     vdW  Elec       q    Type
                         _______ _______ _______ _____ _____    ______ ____

>  <TORSDO>
F 8

>  <SCORE>
-6.114

>  <RMSD_LB>
7.187

>  <RMSD_UB>
9.998

$$$$
