CHEMBL123157
 OpenBabel10172500553D

 24 25  0  0  1  0  0  0  0  0999 V2000
  146.2550  138.2660  153.2930 C   0  0  0  0  0  0  0  0  0  0  0  0
  146.8280  137.1910  153.4460 O   0  0  0  0  0  0  0  0  0  0  0  0
  144.8930  138.3690  153.1760 N   0  0  0  0  0  0  0  0  0  0  0  0
  144.4900  139.2350  152.9380 H   0  0  0  0  0  0  0  0  0  0  0  0
  147.5580  142.2610  152.5260 C   0  0  1  0  0  3  0  0  0  0  0  0
  146.9270  141.9820  153.9140 C   0  0  0  0  0  2  0  0  0  0  0  0
  146.4800  140.5550  154.0380 C   0  0  0  0  0  3  0  0  0  0  0  0
  147.0090  139.5620  153.2950 C   0  0  0  0  0  0  0  0  0  0  0  0
  148.1960  139.7870  152.3900 C   0  0  0  0  0  2  0  0  0  0  0  0
  148.7110  141.2410  152.3850 C   0  0  0  0  0  2  0  0  0  0  0  0
  145.2300  142.0850  151.5060 C   0  0  0  0  0  2  0  0  0  0  0  0
  146.5570  142.2540  151.3520 C   0  0  0  0  0  0  0  0  0  0  0  0
  147.1030  142.4340  149.9570 C   0  0  0  0  0  1  0  0  0  0  0  0
  144.0420  137.2230  153.3970 C   0  0  0  0  0  2  0  0  0  0  0  0
  142.5900  137.5770  153.2090 C   0  0  0  0  0  0  0  0  0  0  0  0
  141.9870  137.4670  151.9520 C   0  0  0  0  0  3  0  0  0  0  0  0
  140.6410  137.7950  151.7790 C   0  0  0  0  0  3  0  0  0  0  0  0
  139.8750  138.2290  152.8660 C   0  0  0  0  0  0  0  0  0  0  0  0
  140.4510  138.3320  154.1350 C   0  0  0  0  0  0  0  0  0  0  0  0
  141.8060  138.0020  154.2920 C   0  0  0  0  0  3  0  0  0  0  0  0
  138.5610  138.5380  152.6470 O   0  0  0  0  0  0  0  0  0  0  0  0
  137.9590  138.5620  153.3650 H   0  0  0  0  0  0  0  0  0  0  0  0
  139.8700  138.7310  155.3100 O   0  0  0  0  0  0  0  0  0  0  0  0
  139.5720  137.7360  156.2800 C   0  0  0  0  0  1  0  0  0  0  0  0
  1  8  1  0  0  0  0
  1  2  2  0  0  0  0
  3  1  1  0  0  0  0
  3 14  1  0  0  0  0
  4  3  1  0  0  0  0
  5 12  1  6  0  0  0
  5  6  1  0  0  0  0
  6  7  1  0  0  0  0
  8  7  2  0  0  0  0
  9  8  1  0  0  0  0
 10  9  1  0  0  0  0
 10  5  1  0  0  0  0
 12 11  2  0  0  0  0
 13 12  1  0  0  0  0
 15 14  1  0  0  0  0
 15 20  1  0  0  0  0
 16 15  2  0  0  0  0
 17 16  1  0  0  0  0
 17 18  2  0  0  0  0
 18 19  1  0  0  0  0
 19 20  2  0  0  0  0
 19 23  1  0  0  0  0
 21 18  1  0  0  0  0
 21 22  1  0  0  0  0
 23 24  1  0  0  0  0
M  END
>  <MODEL>
1

>  <REMARK>
 VINA RESULT:    -7.637      0.000      0.000
 INTER + INTRA:         -10.671
 INTER:                 -10.173
 INTRA:                  -0.498
 UNBOUND:                -0.579
  Name = CHEMBL123157
  8 active torsions:
  status: ('A' for Active; 'I' for Inactive)
    1  A    between atoms: C_2  and  C_3
    2  A    between atoms: C_2  and  C_4
    3  A    between atoms: C_7  and  C_8
    4  A    between atoms: N_10  and  C_11
    5  A    between atoms: C_11  and  C_12
    6  A    between atoms: C_15  and  O_16
    7  A    between atoms: C_17  and  O_18
    8  A    between atoms: O_18  and  C_19
                            x       y       z     vdW  Elec       q    Type
                         _______ _______ _______ _____ _____    ______ ____

>  <TORSDO>
F 6

>  <SCORE>
-7.637

>  <RMSD_LB>
0.000

>  <RMSD_UB>
0.000

$$$$
CHEMBL123157
 OpenBabel10172500553D

 24 25  0  0  1  0  0  0  0  0999 V2000
  144.6280  138.6010  151.8470 C   0  0  0  0  0  0  0  0  0  0  0  0
  145.0190  138.0630  152.8790 O   0  0  0  0  0  0  0  0  0  0  0  0
  143.5380  138.1530  151.1460 N   0  0  0  0  0  0  0  0  0  0  0  0
  143.3340  138.5420  150.2650 H   0  0  0  0  0  0  0  0  0  0  0  0
  146.9990  142.1270  151.4010 C   0  0  1  0  0  3  0  0  0  0  0  0
  147.4380  140.8770  150.5950 C   0  0  0  0  0  2  0  0  0  0  0  0
  146.5450  139.7030  150.8710 C   0  0  0  0  0  3  0  0  0  0  0  0
  145.2800  139.8420  151.3160 C   0  0  0  0  0  0  0  0  0  0  0  0
  144.6170  141.1940  151.4270 C   0  0  0  0  0  2  0  0  0  0  0  0
  145.5230  142.3710  151.0120 C   0  0  0  0  0  2  0  0  0  0  0  0
  146.3030  142.2820  153.8480 C   0  0  0  0  0  2  0  0  0  0  0  0
  147.2460  142.0290  152.9210 C   0  0  0  0  0  0  0  0  0  0  0  0
  148.6290  141.6420  153.3880 C   0  0  0  0  0  1  0  0  0  0  0  0
  142.6880  137.1170  151.6830 C   0  0  0  0  0  2  0  0  0  0  0  0
  141.4730  137.7040  152.3550 C   0  0  0  0  0  0  0  0  0  0  0  0
  140.3170  137.9830  151.6190 C   0  0  0  0  0  3  0  0  0  0  0  0
  139.1920  138.5250  152.2430 C   0  0  0  0  0  3  0  0  0  0  0  0
  139.2040  138.7870  153.6170 C   0  0  0  0  0  0  0  0  0  0  0  0
  140.3420  138.5010  154.3760 C   0  0  0  0  0  0  0  0  0  0  0  0
  141.4660  137.9600  153.7340 C   0  0  0  0  0  3  0  0  0  0  0  0
  138.0780  139.3180  154.1830 O   0  0  0  0  0  0  0  0  0  0  0  0
  137.9110  140.2380  154.1190 H   0  0  0  0  0  0  0  0  0  0  0  0
  140.5430  138.6830  155.7200 O   0  0  0  0  0  0  0  0  0  0  0  0
  140.5240  137.5380  156.5600 C   0  0  0  0  0  1  0  0  0  0  0  0
  1  2  2  0  0  0  0
  3 14  1  0  0  0  0
  3  1  1  0  0  0  0
  4  3  1  0  0  0  0
  5 12  1  1  0  0  0
  6  7  1  0  0  0  0
  6  5  1  0  0  0  0
  7  8  2  0  0  0  0
  8  9  1  0  0  0  0
  8  1  1  0  0  0  0
 10  5  1  0  0  0  0
 10  9  1  0  0  0  0
 12 13  1  0  0  0  0
 12 11  2  0  0  0  0
 14 15  1  0  0  0  0
 15 20  1  0  0  0  0
 16 17  1  0  0  0  0
 16 15  2  0  0  0  0
 17 18  2  0  0  0  0
 18 21  1  0  0  0  0
 18 19  1  0  0  0  0
 19 23  1  0  0  0  0
 20 19  2  0  0  0  0
 22 21  1  0  0  0  0
 23 24  1  0  0  0  0
M  END
>  <MODEL>
2

>  <REMARK>
 VINA RESULT:    -7.582      1.463      2.335
 INTER + INTRA:         -10.599
 INTER:                 -10.032
 INTRA:                  -0.567
 UNBOUND:                -0.579
  Name = CHEMBL123157
  8 active torsions:
  status: ('A' for Active; 'I' for Inactive)
    1  A    between atoms: C_2  and  C_3
    2  A    between atoms: C_2  and  C_4
    3  A    between atoms: C_7  and  C_8
    4  A    between atoms: N_10  and  C_11
    5  A    between atoms: C_11  and  C_12
    6  A    between atoms: C_15  and  O_16
    7  A    between atoms: C_17  and  O_18
    8  A    between atoms: O_18  and  C_19
                            x       y       z     vdW  Elec       q    Type
                         _______ _______ _______ _____ _____    ______ ____

>  <TORSDO>
F 6

>  <SCORE>
-7.582

>  <RMSD_LB>
1.463

>  <RMSD_UB>
2.335

$$$$
CHEMBL123157
 OpenBabel10172500553D

 24 25  0  0  1  0  0  0  0  0999 V2000
  136.7250  135.9090  150.6190 C   0  0  0  0  0  0  0  0  0  0  0  0
  137.3670  135.4170  149.6950 O   0  0  0  0  0  0  0  0  0  0  0  0
  137.2060  136.9360  151.3890 N   0  0  0  0  0  0  0  0  0  0  0  0
  136.7080  137.2180  152.1900 H   0  0  0  0  0  0  0  0  0  0  0  0
  132.9100  133.9900  150.5170 C   0  0  1  0  0  3  0  0  0  0  0  0
  133.8950  133.5380  151.6260 C   0  0  0  0  0  2  0  0  0  0  0  0
  135.2050  134.2620  151.5250 C   0  0  0  0  0  3  0  0  0  0  0  0
  135.3270  135.4640  150.9260 C   0  0  0  0  0  0  0  0  0  0  0  0
  134.1260  136.2400  150.4430 C   0  0  0  0  0  2  0  0  0  0  0  0
  132.7810  135.5220  150.6790 C   0  0  0  0  0  2  0  0  0  0  0  0
  132.8460  134.1320  147.9730 C   0  0  0  0  0  2  0  0  0  0  0  0
  133.2920  133.5330  149.0930 C   0  0  0  0  0  0  0  0  0  0  0  0
  134.2060  132.3390  148.9560 C   0  0  0  0  0  1  0  0  0  0  0  0
  138.4360  137.6090  151.0410 C   0  0  0  0  0  2  0  0  0  0  0  0
  139.3090  137.8110  152.2530 C   0  0  0  0  0  0  0  0  0  0  0  0
  140.7020  137.7700  152.1420 C   0  0  0  0  0  3  0  0  0  0  0  0
  141.5100  137.9580  153.2660 C   0  0  0  0  0  3  0  0  0  0  0  0
  140.9320  138.2000  154.5170 C   0  0  0  0  0  0  0  0  0  0  0  0
  139.5430  138.2600  154.6490 C   0  0  0  0  0  0  0  0  0  0  0  0
  138.7450  138.0660  153.5120 C   0  0  0  0  0  3  0  0  0  0  0  0
  141.7650  138.3780  155.5880 O   0  0  0  0  0  0  0  0  0  0  0  0
  141.9240  137.6700  156.1810 H   0  0  0  0  0  0  0  0  0  0  0  0
  138.8000  138.4860  155.7790 O   0  0  0  0  0  0  0  0  0  0  0  0
  137.4230  138.1350  155.7550 C   0  0  0  0  0  1  0  0  0  0  0  0
  1  8  1  0  0  0  0
  1  3  1  0  0  0  0
  2  1  2  0  0  0  0
  3  4  1  0  0  0  0
  5 12  1  6  0  0  0
  5 10  1  0  0  0  0
  5  6  1  0  0  0  0
  7  6  1  0  0  0  0
  8  7  2  0  0  0  0
  9 10  1  0  0  0  0
  9  8  1  0  0  0  0
 11 12  2  0  0  0  0
 13 12  1  0  0  0  0
 14  3  1  0  0  0  0
 14 15  1  0  0  0  0
 15 20  1  0  0  0  0
 16 15  2  0  0  0  0
 16 17  1  0  0  0  0
 17 18  2  0  0  0  0
 18 19  1  0  0  0  0
 18 21  1  0  0  0  0
 19 23  1  0  0  0  0
 20 19  2  0  0  0  0
 21 22  1  0  0  0  0
 24 23  1  0  0  0  0
M  END
>  <MODEL>
3

>  <REMARK>
 VINA RESULT:    -7.511      5.563     10.645
 INTER + INTRA:         -10.504
 INTER:                  -9.969
 INTRA:                  -0.535
 UNBOUND:                -0.579
  Name = CHEMBL123157
  8 active torsions:
  status: ('A' for Active; 'I' for Inactive)
    1  A    between atoms: C_2  and  C_3
    2  A    between atoms: C_2  and  C_4
    3  A    between atoms: C_7  and  C_8
    4  A    between atoms: N_10  and  C_11
    5  A    between atoms: C_11  and  C_12
    6  A    between atoms: C_15  and  O_16
    7  A    between atoms: C_17  and  O_18
    8  A    between atoms: O_18  and  C_19
                            x       y       z     vdW  Elec       q    Type
                         _______ _______ _______ _____ _____    ______ ____

>  <TORSDO>
F 6

>  <SCORE>
-7.511

>  <RMSD_LB>
5.563

>  <RMSD_UB>
10.645

$$$$
CHEMBL123157
 OpenBabel10172500553D

 24 25  0  0  1  0  0  0  0  0999 V2000
  146.5420  138.9480  148.9730 C   0  0  0  0  0  0  0  0  0  0  0  0
  146.2300  137.8650  149.4630 O   0  0  0  0  0  0  0  0  0  0  0  0
  147.2580  139.0560  147.8100 N   0  0  0  0  0  0  0  0  0  0  0  0
  147.5840  139.9380  147.5200 H   0  0  0  0  0  0  0  0  0  0  0  0
  146.2880  142.5230  151.2990 C   0  0  1  0  0  3  0  0  0  0  0  0
  146.5590  142.6890  149.7810 C   0  0  0  0  0  2  0  0  0  0  0  0
  146.6610  141.3590  149.0920 C   0  0  0  0  0  3  0  0  0  0  0  0
  146.0930  140.2410  149.5850 C   0  0  0  0  0  0  0  0  0  0  0  0
  145.1830  140.2720  150.7900 C   0  0  0  0  0  2  0  0  0  0  0  0
  144.9970  141.6770  151.3970 C   0  0  0  0  0  2  0  0  0  0  0  0
  147.3480  141.3560  153.3010 C   0  0  0  0  0  2  0  0  0  0  0  0
  147.4780  141.9610  152.1050 C   0  0  0  0  0  0  0  0  0  0  0  0
  148.8620  142.1140  151.5220 C   0  0  0  0  0  1  0  0  0  0  0  0
  147.5410  137.8900  147.0050 C   0  0  0  0  0  2  0  0  0  0  0  0
  148.8050  138.0750  146.2050 C   0  0  0  0  0  0  0  0  0  0  0  0
  148.9000  139.0870  145.2460 C   0  0  0  0  0  3  0  0  0  0  0  0
  150.0720  139.2580  144.5060 C   0  0  0  0  0  3  0  0  0  0  0  0
  151.1720  138.4210  144.7250 C   0  0  0  0  0  0  0  0  0  0  0  0
  151.1070  137.4120  145.6900 C   0  0  0  0  0  0  0  0  0  0  0  0
  149.9200  137.2520  146.4220 C   0  0  0  0  0  3  0  0  0  0  0  0
  152.2980  138.6270  143.9760 O   0  0  0  0  0  0  0  0  0  0  0  0
  152.7830  137.8950  143.6470 H   0  0  0  0  0  0  0  0  0  0  0  0
  152.0700  136.5050  146.0460 O   0  0  0  0  0  0  0  0  0  0  0  0
  152.2300  136.2070  147.4260 C   0  0  0  0  0  1  0  0  0  0  0  0
  1  2  2  0  0  0  0
  1  8  1  0  0  0  0
  3  1  1  0  0  0  0
  4  3  1  0  0  0  0
  5 10  1  0  0  0  0
  5 12  1  1  0  0  0
  6  5  1  0  0  0  0
  7  8  2  0  0  0  0
  7  6  1  0  0  0  0
  8  9  1  0  0  0  0
  9 10  1  0  0  0  0
 12 11  2  0  0  0  0
 13 12  1  0  0  0  0
 14  3  1  0  0  0  0
 15 20  1  0  0  0  0
 15 14  1  0  0  0  0
 16 15  2  0  0  0  0
 17 18  2  0  0  0  0
 17 16  1  0  0  0  0
 18 19  1  0  0  0  0
 19 23  1  0  0  0  0
 19 20  2  0  0  0  0
 21 18  1  0  0  0  0
 22 21  1  0  0  0  0
 23 24  1  0  0  0  0
M  END
>  <MODEL>
4

>  <REMARK>
 VINA RESULT:    -7.364      5.449      9.064
 INTER + INTRA:         -10.310
 INTER:                  -9.735
 INTRA:                  -0.575
 UNBOUND:                -0.579
  Name = CHEMBL123157
  8 active torsions:
  status: ('A' for Active; 'I' for Inactive)
    1  A    between atoms: C_2  and  C_3
    2  A    between atoms: C_2  and  C_4
    3  A    between atoms: C_7  and  C_8
    4  A    between atoms: N_10  and  C_11
    5  A    between atoms: C_11  and  C_12
    6  A    between atoms: C_15  and  O_16
    7  A    between atoms: C_17  and  O_18
    8  A    between atoms: O_18  and  C_19
                            x       y       z     vdW  Elec       q    Type
                         _______ _______ _______ _____ _____    ______ ____

>  <TORSDO>
F 6

>  <SCORE>
-7.364

>  <RMSD_LB>
5.449

>  <RMSD_UB>
9.064

$$$$
CHEMBL123157
 OpenBabel10172500553D

 24 25  0  0  1  0  0  0  0  0999 V2000
  145.4120  138.2640  152.5650 C   0  0  0  0  0  0  0  0  0  0  0  0
  145.7890  137.2540  151.9760 O   0  0  0  0  0  0  0  0  0  0  0  0
  144.1130  138.4460  152.9650 N   0  0  0  0  0  0  0  0  0  0  0  0
  143.8340  139.3170  153.3260 H   0  0  0  0  0  0  0  0  0  0  0  0
  147.5450  141.9540  152.8490 C   0  0  1  0  0  3  0  0  0  0  0  0
  146.6060  141.5920  154.0290 C   0  0  0  0  0  2  0  0  0  0  0  0
  145.8930  140.2950  153.7850 C   0  0  0  0  0  3  0  0  0  0  0  0
  146.3720  139.3470  152.9540 C   0  0  0  0  0  0  0  0  0  0  0  0
  147.7380  139.4580  152.3210 C   0  0  0  0  0  2  0  0  0  0  0  0
  148.4990  140.7460  152.6960 C   0  0  0  0  0  2  0  0  0  0  0  0
  145.4880  142.5530  151.4710 C   0  0  0  0  0  2  0  0  0  0  0  0
  146.8180  142.3570  151.5500 C   0  0  0  0  0  0  0  0  0  0  0  0
  147.6460  142.5250  150.2990 C   0  0  0  0  0  1  0  0  0  0  0  0
  143.1500  137.3740  152.8610 C   0  0  0  0  0  2  0  0  0  0  0  0
  141.7740  137.8370  153.2650 C   0  0  0  0  0  0  0  0  0  0  0  0
  141.5430  138.3460  154.5470 C   0  0  0  0  0  3  0  0  0  0  0  0
  140.2670  138.7750  154.9210 C   0  0  0  0  0  3  0  0  0  0  0  0
  139.2070  138.7110  154.0110 C   0  0  0  0  0  0  0  0  0  0  0  0
  139.4180  138.2210  152.7190 C   0  0  0  0  0  0  0  0  0  0  0  0
  140.7040  137.7900  152.3600 C   0  0  0  0  0  3  0  0  0  0  0  0
  137.9760  139.1430  154.4230 O   0  0  0  0  0  0  0  0  0  0  0  0
  137.6480  138.8910  155.2630 H   0  0  0  0  0  0  0  0  0  0  0  0
  138.5150  138.0840  151.6970 O   0  0  0  0  0  0  0  0  0  0  0  0
  138.9200  138.4660  150.3900 C   0  0  0  0  0  1  0  0  0  0  0  0
  1  8  1  0  0  0  0
  1  3  1  0  0  0  0
  2  1  2  0  0  0  0
  3  4  1  0  0  0  0
  5 12  1  6  0  0  0
  5  6  1  0  0  0  0
  7  6  1  0  0  0  0
  8  7  2  0  0  0  0
  9 10  1  0  0  0  0
  9  8  1  0  0  0  0
 10  5  1  0  0  0  0
 11 12  2  0  0  0  0
 13 12  1  0  0  0  0
 14  3  1  0  0  0  0
 14 15  1  0  0  0  0
 15 16  1  0  0  0  0
 16 17  2  0  0  0  0
 18 21  1  0  0  0  0
 18 17  1  0  0  0  0
 19 18  2  0  0  0  0
 20 19  1  0  0  0  0
 20 15  2  0  0  0  0
 21 22  1  0  0  0  0
 23 19  1  0  0  0  0
 24 23  1  0  0  0  0
M  END
>  <MODEL>
5

>  <REMARK>
 VINA RESULT:    -7.339      1.024      2.063
 INTER + INTRA:         -10.277
 INTER:                  -9.738
 INTRA:                  -0.540
 UNBOUND:                -0.579
  Name = CHEMBL123157
  8 active torsions:
  status: ('A' for Active; 'I' for Inactive)
    1  A    between atoms: C_2  and  C_3
    2  A    between atoms: C_2  and  C_4
    3  A    between atoms: C_7  and  C_8
    4  A    between atoms: N_10  and  C_11
    5  A    between atoms: C_11  and  C_12
    6  A    between atoms: C_15  and  O_16
    7  A    between atoms: C_17  and  O_18
    8  A    between atoms: O_18  and  C_19
                            x       y       z     vdW  Elec       q    Type
                         _______ _______ _______ _____ _____    ______ ____

>  <TORSDO>
F 6

>  <SCORE>
-7.339

>  <RMSD_LB>
1.024

>  <RMSD_UB>
2.063

$$$$
CHEMBL123157
 OpenBabel10172500553D

 24 25  0  0  1  0  0  0  0  0999 V2000
  134.4070  135.1670  152.7320 C   0  0  0  0  0  0  0  0  0  0  0  0
  133.2220  134.9950  153.0020 O   0  0  0  0  0  0  0  0  0  0  0  0
  135.3870  135.2030  153.6900 N   0  0  0  0  0  0  0  0  0  0  0  0
  136.3030  135.4600  153.4390 H   0  0  0  0  0  0  0  0  0  0  0  0
  134.9100  134.6730  148.5190 C   0  0  1  0  0  3  0  0  0  0  0  0
  134.2630  135.9970  148.9990 C   0  0  0  0  0  2  0  0  0  0  0  0
  134.1120  136.0250  150.4910 C   0  0  0  0  0  3  0  0  0  0  0  0
  134.8780  135.2810  151.3140 C   0  0  0  0  0  0  0  0  0  0  0  0
  136.0490  134.4760  150.8020 C   0  0  0  0  0  2  0  0  0  0  0  0
  136.2550  134.5720  149.2760 C   0  0  0  0  0  2  0  0  0  0  0  0
  134.4780  132.1690  148.7120 C   0  0  0  0  0  2  0  0  0  0  0  0
  134.0080  133.4290  148.6600 C   0  0  0  0  0  0  0  0  0  0  0  0
  132.5150  133.6440  148.7290 C   0  0  0  0  0  1  0  0  0  0  0  0
  135.0910  134.8680  155.0640 C   0  0  0  0  0  2  0  0  0  0  0  0
  135.8070  135.7910  156.0160 C   0  0  0  0  0  0  0  0  0  0  0  0
  135.8430  135.5130  157.3860 C   0  0  0  0  0  3  0  0  0  0  0  0
  136.5080  136.3680  158.2670 C   0  0  0  0  0  3  0  0  0  0  0  0
  137.1560  137.5110  157.7860 C   0  0  0  0  0  0  0  0  0  0  0  0
  137.1470  137.8010  156.4190 C   0  0  0  0  0  0  0  0  0  0  0  0
  136.4720  136.9340  155.5470 C   0  0  0  0  0  3  0  0  0  0  0  0
  137.7940  138.3180  158.6880 O   0  0  0  0  0  0  0  0  0  0  0  0
  138.3060  137.9390  159.3760 H   0  0  0  0  0  0  0  0  0  0  0  0
  137.7210  138.8600  155.7650 O   0  0  0  0  0  0  0  0  0  0  0  0
  138.3490  138.6130  154.5150 C   0  0  0  0  0  1  0  0  0  0  0  0
  1  2  2  0  0  0  0
  1  3  1  0  0  0  0
  3 14  1  0  0  0  0
  4  3  1  0  0  0  0
  5 12  1  1  0  0  0
  5  6  1  0  0  0  0
  5 10  1  0  0  0  0
  6  7  1  0  0  0  0
  7  8  2  0  0  0  0
  8  1  1  0  0  0  0
  9  8  1  0  0  0  0
 10  9  1  0  0  0  0
 12 11  2  0  0  0  0
 12 13  1  0  0  0  0
 14 15  1  0  0  0  0
 15 16  1  0  0  0  0
 16 17  2  0  0  0  0
 18 17  1  0  0  0  0
 18 21  1  0  0  0  0
 19 18  2  0  0  0  0
 20 15  2  0  0  0  0
 20 19  1  0  0  0  0
 21 22  1  0  0  0  0
 23 19  1  0  0  0  0
 24 23  1  0  0  0  0
M  END
>  <MODEL>
6

>  <REMARK>
 VINA RESULT:    -7.258      7.439     11.279
 INTER + INTRA:         -10.171
 INTER:                  -9.605
 INTRA:                  -0.566
 UNBOUND:                -0.579
  Name = CHEMBL123157
  8 active torsions:
  status: ('A' for Active; 'I' for Inactive)
    1  A    between atoms: C_2  and  C_3
    2  A    between atoms: C_2  and  C_4
    3  A    between atoms: C_7  and  C_8
    4  A    between atoms: N_10  and  C_11
    5  A    between atoms: C_11  and  C_12
    6  A    between atoms: C_15  and  O_16
    7  A    between atoms: C_17  and  O_18
    8  A    between atoms: O_18  and  C_19
                            x       y       z     vdW  Elec       q    Type
                         _______ _______ _______ _____ _____    ______ ____

>  <TORSDO>
F 6

>  <SCORE>
-7.258

>  <RMSD_LB>
7.439

>  <RMSD_UB>
11.279

$$$$
CHEMBL123157
 OpenBabel10172500553D

 24 25  0  0  1  0  0  0  0  0999 V2000
  144.8450  138.5920  151.7720 C   0  0  0  0  0  0  0  0  0  0  0  0
  145.3050  137.4880  151.4950 O   0  0  0  0  0  0  0  0  0  0  0  0
  143.7010  138.7530  152.5110 N   0  0  0  0  0  0  0  0  0  0  0  0
  143.3080  139.6500  152.6080 H   0  0  0  0  0  0  0  0  0  0  0  0
  147.2780  142.1030  151.7470 C   0  0  1  0  0  3  0  0  0  0  0  0
  147.7670  140.9030  150.8960 C   0  0  0  0  0  2  0  0  0  0  0  0
  146.8430  139.7270  151.0230 C   0  0  0  0  0  3  0  0  0  0  0  0
  145.5490  139.8550  151.3760 C   0  0  0  0  0  0  0  0  0  0  0  0
  144.8920  141.2060  151.5250 C   0  0  0  0  0  2  0  0  0  0  0  0
  145.8390  142.3950  151.2620 C   0  0  0  0  0  2  0  0  0  0  0  0
  148.5040  141.4070  153.8700 C   0  0  0  0  0  2  0  0  0  0  0  0
  147.4040  141.9020  153.2720 C   0  0  0  0  0  0  0  0  0  0  0  0
  146.2210  142.2700  154.1340 C   0  0  0  0  0  1  0  0  0  0  0  0
  143.0670  137.6230  153.1490 C   0  0  0  0  0  2  0  0  0  0  0  0
  141.6280  137.9210  153.4810 C   0  0  0  0  0  0  0  0  0  0  0  0
  141.2430  138.1910  154.7980 C   0  0  0  0  0  3  0  0  0  0  0  0
  139.9090  138.4690  155.1050 C   0  0  0  0  0  3  0  0  0  0  0  0
  138.9420  138.4900  154.0930 C   0  0  0  0  0  0  0  0  0  0  0  0
  139.3070  138.2390  152.7680 C   0  0  0  0  0  0  0  0  0  0  0  0
  140.6500  137.9580  152.4760 C   0  0  0  0  0  3  0  0  0  0  0  0
  137.6490  138.7670  154.4430 O   0  0  0  0  0  0  0  0  0  0  0  0
  137.2680  138.3560  155.1940 H   0  0  0  0  0  0  0  0  0  0  0  0
  138.5120  138.2180  151.6510 O   0  0  0  0  0  0  0  0  0  0  0  0
  137.6420  137.1090  151.4710 C   0  0  0  0  0  1  0  0  0  0  0  0
  1  3  1  0  0  0  0
  2  1  2  0  0  0  0
  3  4  1  0  0  0  0
  3 14  1  0  0  0  0
  5 12  1  1  0  0  0
  6  7  1  0  0  0  0
  6  5  1  0  0  0  0
  7  8  2  0  0  0  0
  8  9  1  0  0  0  0
  8  1  1  0  0  0  0
 10  9  1  0  0  0  0
 10  5  1  0  0  0  0
 12 11  2  0  0  0  0
 12 13  1  0  0  0  0
 14 15  1  0  0  0  0
 15 16  1  0  0  0  0
 16 17  2  0  0  0  0
 18 21  1  0  0  0  0
 18 17  1  0  0  0  0
 19 18  2  0  0  0  0
 20 19  1  0  0  0  0
 20 15  2  0  0  0  0
 21 22  1  0  0  0  0
 23 19  1  0  0  0  0
 24 23  1  0  0  0  0
M  END
>  <MODEL>
7

>  <REMARK>
 VINA RESULT:    -7.108      1.502      2.899
 INTER + INTRA:          -9.972
 INTER:                  -9.629
 INTRA:                  -0.343
 UNBOUND:                -0.579
  Name = CHEMBL123157
  8 active torsions:
  status: ('A' for Active; 'I' for Inactive)
    1  A    between atoms: C_2  and  C_3
    2  A    between atoms: C_2  and  C_4
    3  A    between atoms: C_7  and  C_8
    4  A    between atoms: N_10  and  C_11
    5  A    between atoms: C_11  and  C_12
    6  A    between atoms: C_15  and  O_16
    7  A    between atoms: C_17  and  O_18
    8  A    between atoms: O_18  and  C_19
                            x       y       z     vdW  Elec       q    Type
                         _______ _______ _______ _____ _____    ______ ____

>  <TORSDO>
F 6

>  <SCORE>
-7.108

>  <RMSD_LB>
1.502

>  <RMSD_UB>
2.899

$$$$
CHEMBL123157
 OpenBabel10172500553D

 24 25  0  0  1  0  0  0  0  0999 V2000
  134.2880  134.5550  152.5780 C   0  0  0  0  0  0  0  0  0  0  0  0
  133.1910  135.0770  152.7600 O   0  0  0  0  0  0  0  0  0  0  0  0
  135.1740  134.3180  153.5970 N   0  0  0  0  0  0  0  0  0  0  0  0
  136.0840  134.0070  153.3870 H   0  0  0  0  0  0  0  0  0  0  0  0
  135.0220  134.2120  148.3830 C   0  0  1  0  0  3  0  0  0  0  0  0
  136.2530  134.4520  149.2950 C   0  0  0  0  0  2  0  0  0  0  0  0
  135.8520  134.5900  150.7340 C   0  0  0  0  0  3  0  0  0  0  0  0
  134.7080  134.0700  151.2230 C   0  0  0  0  0  0  0  0  0  0  0  0
  133.8170  133.1800  150.3900 C   0  0  0  0  0  2  0  0  0  0  0  0
  134.3260  132.9540  148.9520 C   0  0  0  0  0  2  0  0  0  0  0  0
  132.7980  135.3440  147.8680 C   0  0  0  0  0  2  0  0  0  0  0  0
  134.0930  135.4340  148.2240 C   0  0  0  0  0  0  0  0  0  0  0  0
  134.6790  136.8030  148.4700 C   0  0  0  0  0  1  0  0  0  0  0  0
  134.7880  134.5210  154.9740 C   0  0  0  0  0  2  0  0  0  0  0  0
  135.7070  135.5000  155.6590 C   0  0  0  0  0  0  0  0  0  0  0  0
  136.5090  136.3670  154.9100 C   0  0  0  0  0  3  0  0  0  0  0  0
  137.3590  137.2750  155.5460 C   0  0  0  0  0  3  0  0  0  0  0  0
  137.4120  137.3320  156.9420 C   0  0  0  0  0  0  0  0  0  0  0  0
  136.6080  136.4860  157.7120 C   0  0  0  0  0  0  0  0  0  0  0  0
  135.7620  135.5780  157.0580 C   0  0  0  0  0  3  0  0  0  0  0  0
  138.2600  138.2380  157.5190 O   0  0  0  0  0  0  0  0  0  0  0  0
  138.1290  138.5020  158.4090 H   0  0  0  0  0  0  0  0  0  0  0  0
  136.5190  136.3980  159.0760 O   0  0  0  0  0  0  0  0  0  0  0  0
  135.2510  136.1010  159.6450 C   0  0  0  0  0  1  0  0  0  0  0  0
  1  2  2  0  0  0  0
  1  3  1  0  0  0  0
  3 14  1  0  0  0  0
  4  3  1  0  0  0  0
  5 12  1  1  0  0  0
  5 10  1  0  0  0  0
  5  6  1  0  0  0  0
  6  7  1  0  0  0  0
  7  8  2  0  0  0  0
  8  1  1  0  0  0  0
  9  8  1  0  0  0  0
 10  9  1  0  0  0  0
 11 12  2  0  0  0  0
 12 13  1  0  0  0  0
 14 15  1  0  0  0  0
 15 20  1  0  0  0  0
 16 17  1  0  0  0  0
 16 15  2  0  0  0  0
 17 18  2  0  0  0  0
 18 21  1  0  0  0  0
 18 19  1  0  0  0  0
 19 23  1  0  0  0  0
 20 19  2  0  0  0  0
 21 22  1  0  0  0  0
 23 24  1  0  0  0  0
M  END
>  <MODEL>
8

>  <REMARK>
 VINA RESULT:    -7.091      8.630     11.283
 INTER + INTRA:          -9.950
 INTER:                  -9.346
 INTRA:                  -0.604
 UNBOUND:                -0.579
  Name = CHEMBL123157
  8 active torsions:
  status: ('A' for Active; 'I' for Inactive)
    1  A    between atoms: C_2  and  C_3
    2  A    between atoms: C_2  and  C_4
    3  A    between atoms: C_7  and  C_8
    4  A    between atoms: N_10  and  C_11
    5  A    between atoms: C_11  and  C_12
    6  A    between atoms: C_15  and  O_16
    7  A    between atoms: C_17  and  O_18
    8  A    between atoms: O_18  and  C_19
                            x       y       z     vdW  Elec       q    Type
                         _______ _______ _______ _____ _____    ______ ____

>  <TORSDO>
F 6

>  <SCORE>
-7.091

>  <RMSD_LB>
8.630

>  <RMSD_UB>
11.283

$$$$
CHEMBL123157
 OpenBabel10172500553D

 24 25  0  0  1  0  0  0  0  0999 V2000
  145.1060  138.5300  151.4740 C   0  0  0  0  0  0  0  0  0  0  0  0
  145.3560  137.9610  152.5330 O   0  0  0  0  0  0  0  0  0  0  0  0
  144.2790  137.9920  150.5220 N   0  0  0  0  0  0  0  0  0  0  0  0
  144.2020  138.4280  149.6430 H   0  0  0  0  0  0  0  0  0  0  0  0
  147.1390  142.2810  151.6820 C   0  0  1  0  0  3  0  0  0  0  0  0
  147.6890  141.2390  150.6740 C   0  0  0  0  0  2  0  0  0  0  0  0
  146.9090  139.9580  150.7290 C   0  0  0  0  0  3  0  0  0  0  0  0
  145.6390  139.8990  151.1760 C   0  0  0  0  0  0  0  0  0  0  0  0
  144.8540  141.1440  151.5150 C   0  0  0  0  0  2  0  0  0  0  0  0
  145.6450  142.4540  151.3240 C   0  0  0  0  0  2  0  0  0  0  0  0
  148.5420  141.3800  153.6090 C   0  0  0  0  0  2  0  0  0  0  0  0
  147.4020  141.9410  153.1650 C   0  0  0  0  0  0  0  0  0  0  0  0
  146.3100  142.2430  154.1630 C   0  0  0  0  0  1  0  0  0  0  0  0
  143.5190  136.7940  150.7940 C   0  0  0  0  0  2  0  0  0  0  0  0
  142.0780  137.1180  151.0910 C   0  0  0  0  0  0  0  0  0  0  0  0
  141.6980  137.5790  152.3550 C   0  0  0  0  0  3  0  0  0  0  0  0
  140.3620  137.8800  152.6280 C   0  0  0  0  0  3  0  0  0  0  0  0
  139.3880  137.7320  151.6350 C   0  0  0  0  0  0  0  0  0  0  0  0
  139.7460  137.2880  150.3600 C   0  0  0  0  0  0  0  0  0  0  0  0
  141.0920  136.9860  150.1010 C   0  0  0  0  0  3  0  0  0  0  0  0
  138.0930  138.0400  151.9510 O   0  0  0  0  0  0  0  0  0  0  0  0
  137.5120  137.3690  152.2520 H   0  0  0  0  0  0  0  0  0  0  0  0
  138.9450  137.0840  149.2670 O   0  0  0  0  0  0  0  0  0  0  0  0
  139.5120  136.4470  148.1310 C   0  0  0  0  0  1  0  0  0  0  0  0
  1  2  2  0  0  0  0
  3 14  1  0  0  0  0
  3  1  1  0  0  0  0
  4  3  1  0  0  0  0
  5 12  1  1  0  0  0
  6  7  1  0  0  0  0
  6  5  1  0  0  0  0
  7  8  2  0  0  0  0
  8  1  1  0  0  0  0
  8  9  1  0  0  0  0
 10  9  1  0  0  0  0
 10  5  1  0  0  0  0
 12 11  2  0  0  0  0
 12 13  1  0  0  0  0
 14 15  1  0  0  0  0
 15 16  1  0  0  0  0
 16 17  2  0  0  0  0
 18 21  1  0  0  0  0
 18 17  1  0  0  0  0
 19 18  2  0  0  0  0
 20 19  1  0  0  0  0
 20 15  2  0  0  0  0
 21 22  1  0  0  0  0
 23 19  1  0  0  0  0
 24 23  1  0  0  0  0
M  END
>  <MODEL>
9

>  <REMARK>
 VINA RESULT:    -7.037      1.909      3.502
 INTER + INTRA:          -9.879
 INTER:                  -9.300
 INTRA:                  -0.579
 UNBOUND:                -0.579
  Name = CHEMBL123157
  8 active torsions:
  status: ('A' for Active; 'I' for Inactive)
    1  A    between atoms: C_2  and  C_3
    2  A    between atoms: C_2  and  C_4
    3  A    between atoms: C_7  and  C_8
    4  A    between atoms: N_10  and  C_11
    5  A    between atoms: C_11  and  C_12
    6  A    between atoms: C_15  and  O_16
    7  A    between atoms: C_17  and  O_18
    8  A    between atoms: O_18  and  C_19
                            x       y       z     vdW  Elec       q    Type
                         _______ _______ _______ _____ _____    ______ ____

>  <TORSDO>
F 6

>  <SCORE>
-7.037

>  <RMSD_LB>
1.909

>  <RMSD_UB>
3.502

$$$$
