CHEMBL313885
 OpenBabel10172500513D

 25 25  0  0  0  0  0  0  0  0999 V2000
  135.4500  134.0260  146.8110 C   0  0  0  0  0  0  0  0  0  0  0  0
  135.8670  134.4180  145.7230 O   0  0  0  0  0  0  0  0  0  0  0  0
  136.1870  134.1000  147.9690 N   0  0  0  0  0  0  0  0  0  0  0  0
  135.7980  133.7640  148.8090 H   0  0  0  0  0  0  0  0  0  0  0  0
  134.0860  133.3840  146.9980 C   0  0  0  0  0  2  0  0  0  0  0  0
  133.9130  132.8740  148.4280 C   0  0  0  0  0  2  0  0  0  0  0  0
  132.6360  133.3900  149.0840 C   0  0  0  0  0  2  0  0  0  0  0  0
  132.9130  133.8050  150.5310 C   0  0  0  0  0  2  0  0  0  0  0  0
  132.7550  135.3110  150.7270 C   0  0  0  0  0  2  0  0  0  0  0  0
  134.0730  136.0370  150.4670 C   0  0  0  0  0  2  0  0  0  0  0  0
  134.0550  136.7540  149.1180 C   0  0  0  0  0  2  0  0  0  0  0  0
  132.6250  137.0900  148.6930 C   0  0  0  0  0  2  0  0  0  0  0  0
  133.1920  137.2590  146.2580 C   0  0  0  0  0  2  0  0  0  0  0  0
  132.4090  136.7930  147.2370 C   0  0  0  0  0  3  0  0  0  0  0  0
  137.5200  134.6610  147.9830 C   0  0  0  0  0  2  0  0  0  0  0  0
  137.5370  136.0840  148.4780 C   0  0  0  0  0  0  0  0  0  0  0  0
  137.3180  137.1440  147.5920 C   0  0  0  0  0  3  0  0  0  0  0  0
  137.3580  138.4630  148.0400 C   0  0  0  0  0  3  0  0  0  0  0  0
  137.6070  138.7430  149.3870 C   0  0  0  0  0  0  0  0  0  0  0  0
  137.8120  137.7010  150.2980 C   0  0  0  0  0  0  0  0  0  0  0  0
  137.7710  136.3780  149.8300 C   0  0  0  0  0  3  0  0  0  0  0  0
  137.6420  140.0540  149.7740 O   0  0  0  0  0  0  0  0  0  0  0  0
  137.6770  140.7330  149.1290 H   0  0  0  0  0  0  0  0  0  0  0  0
  138.0640  137.7840  151.6430 O   0  0  0  0  0  0  0  0  0  0  0  0
  137.3100  136.9560  152.5160 C   0  0  0  0  0  1  0  0  0  0  0  0
  1  5  1  0  0  0  0
  1  3  1  0  0  0  0
  2  1  2  0  0  0  0
  3 15  1  0  0  0  0
  3  4  1  0  0  0  0
  5  6  1  0  0  0  0
  6  7  1  0  0  0  0
  7  8  1  0  0  0  0
  8  9  1  0  0  0  0
 10  9  1  0  0  0  0
 11 10  1  0  0  0  0
 12 11  1  0  0  0  0
 13 14  2  0  0  0  0
 14 12  1  0  0  0  0
 15 16  1  0  0  0  0
 16 21  1  0  0  0  0
 17 18  1  0  0  0  0
 17 16  2  0  0  0  0
 18 19  2  0  0  0  0
 19 22  1  0  0  0  0
 19 20  1  0  0  0  0
 20 24  1  0  0  0  0
 21 20  2  0  0  0  0
 23 22  1  0  0  0  0
 24 25  1  0  0  0  0
M  END
>  <MODEL>
1

>  <REMARK>
 VINA RESULT:    -5.843      0.000      0.000
 INTER + INTRA:         -11.762
 INTER:                  -9.162
 INTRA:                  -2.600
 UNBOUND:                -1.650
  Name = CHEMBL313885
  14 active torsions:
  status: ('A' for Active; 'I' for Inactive)
    1  A    between atoms: C_2  and  C_3
    2  A    between atoms: C_3  and  C_4
    3  A    between atoms: C_4  and  C_5
    4  A    between atoms: C_5  and  C_6
    5  A    between atoms: C_6  and  C_7
    6  A    between atoms: C_7  and  C_8
    7  A    between atoms: C_8  and  C_9
    8  A    between atoms: C_9  and  C_10
    9  A    between atoms: C_10  and  C_11
   10  A    between atoms: N_13  and  C_14
   11  A    between atoms: C_14  and  C_15
   12  A    between atoms: C_18  and  O_19
   13  A    between atoms: C_20  and  O_21
   14  A    between atoms: O_21  and  C_22
                            x       y       z     vdW  Elec       q    Type
                         _______ _______ _______ _____ _____    ______ ____

>  <TORSDO>
F 13

>  <SCORE>
-5.843

>  <RMSD_LB>
0.000

>  <RMSD_UB>
0.000

$$$$
CHEMBL313885
 OpenBabel10172500513D

 25 25  0  0  0  0  0  0  0  0999 V2000
  145.6380  140.4990  148.9540 C   0  0  0  0  0  0  0  0  0  0  0  0
  146.6920  139.9570  148.6310 O   0  0  0  0  0  0  0  0  0  0  0  0
  145.5830  141.7300  149.5640 N   0  0  0  0  0  0  0  0  0  0  0  0
  144.7070  142.1100  149.8030 H   0  0  0  0  0  0  0  0  0  0  0  0
  144.2750  139.8620  148.7480 C   0  0  0  0  0  2  0  0  0  0  0  0
  143.3220  140.2290  149.8840 C   0  0  0  0  0  2  0  0  0  0  0  0
  142.4240  139.0660  150.2950 C   0  0  0  0  0  2  0  0  0  0  0  0
  142.7620  137.8190  149.4740 C   0  0  0  0  0  2  0  0  0  0  0  0
  143.0530  136.6160  150.3690 C   0  0  0  0  0  2  0  0  0  0  0  0
  143.8070  135.5330  149.5990 C   0  0  0  0  0  2  0  0  0  0  0  0
  145.3180  135.7530  149.6710 C   0  0  0  0  0  2  0  0  0  0  0  0
  145.7310  136.2870  151.0430 C   0  0  0  0  0  2  0  0  0  0  0  0
  147.1470  138.1460  151.9490 C   0  0  0  0  0  2  0  0  0  0  0  0
  146.6760  137.4460  150.9100 C   0  0  0  0  0  3  0  0  0  0  0  0
  146.7830  142.4810  149.8620 C   0  0  0  0  0  2  0  0  0  0  0  0
  147.3210  142.1780  151.2360 C   0  0  0  0  0  0  0  0  0  0  0  0
  148.7010  142.1660  151.4690 C   0  0  0  0  0  3  0  0  0  0  0  0
  149.2040  141.8600  152.7330 C   0  0  0  0  0  3  0  0  0  0  0  0
  148.3330  141.5730  153.7880 C   0  0  0  0  0  0  0  0  0  0  0  0
  146.9490  141.5940  153.5870 C   0  0  0  0  0  0  0  0  0  0  0  0
  146.4580  141.9020  152.3080 C   0  0  0  0  0  3  0  0  0  0  0  0
  148.8790  141.2720  155.0060 O   0  0  0  0  0  0  0  0  0  0  0  0
  149.7090  140.8420  155.0550 H   0  0  0  0  0  0  0  0  0  0  0  0
  145.9540  141.3440  154.4950 O   0  0  0  0  0  0  0  0  0  0  0  0
  145.4050  140.0350  154.5400 C   0  0  0  0  0  1  0  0  0  0  0  0
  1  3  1  0  0  0  0
  2  1  2  0  0  0  0
  3  4  1  0  0  0  0
  3 15  1  0  0  0  0
  5  1  1  0  0  0  0
  5  6  1  0  0  0  0
  6  7  1  0  0  0  0
  8  7  1  0  0  0  0
  8  9  1  0  0  0  0
 10 11  1  0  0  0  0
 10  9  1  0  0  0  0
 11 12  1  0  0  0  0
 14 12  1  0  0  0  0
 14 13  2  0  0  0  0
 15 16  1  0  0  0  0
 16 17  2  0  0  0  0
 16 21  1  0  0  0  0
 17 18  1  0  0  0  0
 18 19  2  0  0  0  0
 19 22  1  0  0  0  0
 20 19  1  0  0  0  0
 20 24  1  0  0  0  0
 21 20  2  0  0  0  0
 22 23  1  0  0  0  0
 24 25  1  0  0  0  0
M  END
>  <MODEL>
2

>  <REMARK>
 VINA RESULT:    -5.792      9.167     11.913
 INTER + INTRA:         -11.674
 INTER:                  -9.681
 INTRA:                  -1.994
 UNBOUND:                -1.650
  Name = CHEMBL313885
  14 active torsions:
  status: ('A' for Active; 'I' for Inactive)
    1  A    between atoms: C_2  and  C_3
    2  A    between atoms: C_3  and  C_4
    3  A    between atoms: C_4  and  C_5
    4  A    between atoms: C_5  and  C_6
    5  A    between atoms: C_6  and  C_7
    6  A    between atoms: C_7  and  C_8
    7  A    between atoms: C_8  and  C_9
    8  A    between atoms: C_9  and  C_10
    9  A    between atoms: C_10  and  C_11
   10  A    between atoms: N_13  and  C_14
   11  A    between atoms: C_14  and  C_15
   12  A    between atoms: C_18  and  O_19
   13  A    between atoms: C_20  and  O_21
   14  A    between atoms: O_21  and  C_22
                            x       y       z     vdW  Elec       q    Type
                         _______ _______ _______ _____ _____    ______ ____

>  <TORSDO>
F 13

>  <SCORE>
-5.792

>  <RMSD_LB>
9.167

>  <RMSD_UB>
11.913

$$$$
CHEMBL313885
 OpenBabel10172500513D

 25 25  0  0  0  0  0  0  0  0999 V2000
  138.2990  138.6880  154.9580 C   0  0  0  0  0  0  0  0  0  0  0  0
  137.2580  139.2600  155.2730 O   0  0  0  0  0  0  0  0  0  0  0  0
  138.6910  137.4880  155.5010 N   0  0  0  0  0  0  0  0  0  0  0  0
  139.5400  137.0830  155.2110 H   0  0  0  0  0  0  0  0  0  0  0  0
  139.2900  139.2540  153.9550 C   0  0  0  0  0  2  0  0  0  0  0  0
  140.0150  138.1340  153.2110 C   0  0  0  0  0  2  0  0  0  0  0  0
  141.3470  138.5880  152.6210 C   0  0  0  0  0  2  0  0  0  0  0  0
  142.1360  137.3830  152.1010 C   0  0  0  0  0  2  0  0  0  0  0  0
  142.3120  137.4360  150.5860 C   0  0  0  0  0  2  0  0  0  0  0  0
  141.0070  137.8270  149.8970 C   0  0  0  0  0  2  0  0  0  0  0  0
  140.1870  136.5940  149.5200 C   0  0  0  0  0  2  0  0  0  0  0  0
  138.7830  136.9850  149.0610 C   0  0  0  0  0  2  0  0  0  0  0  0
  137.3110  137.0050  151.0900 C   0  0  0  0  0  2  0  0  0  0  0  0
  138.0210  137.6610  150.1650 C   0  0  0  0  0  3  0  0  0  0  0  0
  137.8850  136.8070  156.4910 C   0  0  0  0  0  2  0  0  0  0  0  0
  136.7600  136.0200  155.8700 C   0  0  0  0  0  0  0  0  0  0  0  0
  136.7330  135.7960  154.4890 C   0  0  0  0  0  3  0  0  0  0  0  0
  135.6810  135.0900  153.9060 C   0  0  0  0  0  3  0  0  0  0  0  0
  134.6440  134.5870  154.6980 C   0  0  0  0  0  0  0  0  0  0  0  0
  134.6560  134.7820  156.0840 C   0  0  0  0  0  0  0  0  0  0  0  0
  135.7220  135.4960  156.6550 C   0  0  0  0  0  3  0  0  0  0  0  0
  133.6330  133.9080  154.0760 O   0  0  0  0  0  0  0  0  0  0  0  0
  133.4230  133.0340  154.3400 H   0  0  0  0  0  0  0  0  0  0  0  0
  133.7370  134.3630  157.0100 O   0  0  0  0  0  0  0  0  0  0  0  0
  133.9520  134.7120  158.3690 C   0  0  0  0  0  1  0  0  0  0  0  0
  1  2  2  0  0  0  0
  1  3  1  0  0  0  0
  3 15  1  0  0  0  0
  4  3  1  0  0  0  0
  5  1  1  0  0  0  0
  6  5  1  0  0  0  0
  7  6  1  0  0  0  0
  8  7  1  0  0  0  0
  9  8  1  0  0  0  0
 10  9  1  0  0  0  0
 11 10  1  0  0  0  0
 12 11  1  0  0  0  0
 12 14  1  0  0  0  0
 14 13  2  0  0  0  0
 16 15  1  0  0  0  0
 16 21  1  0  0  0  0
 17 16  2  0  0  0  0
 18 17  1  0  0  0  0
 18 19  2  0  0  0  0
 19 20  1  0  0  0  0
 20 21  2  0  0  0  0
 20 24  1  0  0  0  0
 22 23  1  0  0  0  0
 22 19  1  0  0  0  0
 24 25  1  0  0  0  0
M  END
>  <MODEL>
3

>  <REMARK>
 VINA RESULT:    -5.777      4.797      8.278
 INTER + INTRA:         -11.648
 INTER:                 -10.285
 INTRA:                  -1.362
 UNBOUND:                -1.650
  Name = CHEMBL313885
  14 active torsions:
  status: ('A' for Active; 'I' for Inactive)
    1  A    between atoms: C_2  and  C_3
    2  A    between atoms: C_3  and  C_4
    3  A    between atoms: C_4  and  C_5
    4  A    between atoms: C_5  and  C_6
    5  A    between atoms: C_6  and  C_7
    6  A    between atoms: C_7  and  C_8
    7  A    between atoms: C_8  and  C_9
    8  A    between atoms: C_9  and  C_10
    9  A    between atoms: C_10  and  C_11
   10  A    between atoms: N_13  and  C_14
   11  A    between atoms: C_14  and  C_15
   12  A    between atoms: C_18  and  O_19
   13  A    between atoms: C_20  and  O_21
   14  A    between atoms: O_21  and  C_22
                            x       y       z     vdW  Elec       q    Type
                         _______ _______ _______ _____ _____    ______ ____

>  <TORSDO>
F 13

>  <SCORE>
-5.777

>  <RMSD_LB>
4.797

>  <RMSD_UB>
8.278

$$$$
CHEMBL313885
 OpenBabel10172500513D

 25 25  0  0  0  0  0  0  0  0999 V2000
  145.9740  140.8920  149.6450 C   0  0  0  0  0  0  0  0  0  0  0  0
  146.8140  140.0060  149.5050 O   0  0  0  0  0  0  0  0  0  0  0  0
  144.6480  140.7260  149.3220 N   0  0  0  0  0  0  0  0  0  0  0  0
  144.0240  141.4770  149.4530 H   0  0  0  0  0  0  0  0  0  0  0  0
  146.3050  142.2810  150.1590 C   0  0  0  0  0  2  0  0  0  0  0  0
  145.5710  142.5700  151.4680 C   0  0  0  0  0  2  0  0  0  0  0  0
  146.3910  142.1900  152.6970 C   0  0  0  0  0  2  0  0  0  0  0  0
  147.8740  142.0840  152.3330 C   0  0  0  0  0  2  0  0  0  0  0  0
  148.4670  140.7450  152.7630 C   0  0  0  0  0  2  0  0  0  0  0  0
  147.9090  140.3090  154.1160 C   0  0  0  0  0  2  0  0  0  0  0  0
  147.4150  138.8640  154.0730 C   0  0  0  0  0  2  0  0  0  0  0  0
  146.9350  138.4890  152.6700 C   0  0  0  0  0  2  0  0  0  0  0  0
  144.5450  139.2030  152.9170 C   0  0  0  0  0  2  0  0  0  0  0  0
  145.4520  138.2560  152.6500 C   0  0  0  0  0  3  0  0  0  0  0  0
  144.1470  139.4750  148.7950 C   0  0  0  0  0  2  0  0  0  0  0  0
  142.9610  138.9620  149.5700 C   0  0  0  0  0  0  0  0  0  0  0  0
  142.9240  137.6340  150.0080 C   0  0  0  0  0  3  0  0  0  0  0  0
  141.8170  137.1470  150.7020 C   0  0  0  0  0  3  0  0  0  0  0  0
  140.7340  137.9870  150.9810 C   0  0  0  0  0  0  0  0  0  0  0  0
  140.7530  139.3240  150.5700 C   0  0  0  0  0  0  0  0  0  0  0  0
  141.8740  139.7980  149.8690 C   0  0  0  0  0  3  0  0  0  0  0  0
  139.6700  137.4580  151.6590 O   0  0  0  0  0  0  0  0  0  0  0  0
  139.7980  136.7380  152.2440 H   0  0  0  0  0  0  0  0  0  0  0  0
  139.7930  140.2850  150.7530 O   0  0  0  0  0  0  0  0  0  0  0  0
  138.8430  140.4860  149.7170 C   0  0  0  0  0  1  0  0  0  0  0  0
  1  5  1  0  0  0  0
  2  1  2  0  0  0  0
  3  4  1  0  0  0  0
  3  1  1  0  0  0  0
  5  6  1  0  0  0  0
  6  7  1  0  0  0  0
  8  7  1  0  0  0  0
  8  9  1  0  0  0  0
  9 10  1  0  0  0  0
 11 10  1  0  0  0  0
 12 11  1  0  0  0  0
 14 12  1  0  0  0  0
 14 13  2  0  0  0  0
 15  3  1  0  0  0  0
 15 16  1  0  0  0  0
 16 21  2  0  0  0  0
 16 17  1  0  0  0  0
 17 18  2  0  0  0  0
 18 19  1  0  0  0  0
 19 22  1  0  0  0  0
 20 24  1  0  0  0  0
 20 19  2  0  0  0  0
 21 20  1  0  0  0  0
 22 23  1  0  0  0  0
 25 24  1  0  0  0  0
M  END
>  <MODEL>
4

>  <REMARK>
 VINA RESULT:    -5.638      7.823     11.584
 INTER + INTRA:         -11.408
 INTER:                  -9.111
 INTRA:                  -2.297
 UNBOUND:                -1.650
  Name = CHEMBL313885
  14 active torsions:
  status: ('A' for Active; 'I' for Inactive)
    1  A    between atoms: C_2  and  C_3
    2  A    between atoms: C_3  and  C_4
    3  A    between atoms: C_4  and  C_5
    4  A    between atoms: C_5  and  C_6
    5  A    between atoms: C_6  and  C_7
    6  A    between atoms: C_7  and  C_8
    7  A    between atoms: C_8  and  C_9
    8  A    between atoms: C_9  and  C_10
    9  A    between atoms: C_10  and  C_11
   10  A    between atoms: N_13  and  C_14
   11  A    between atoms: C_14  and  C_15
   12  A    between atoms: C_18  and  O_19
   13  A    between atoms: C_20  and  O_21
   14  A    between atoms: O_21  and  C_22
                            x       y       z     vdW  Elec       q    Type
                         _______ _______ _______ _____ _____    ______ ____

>  <TORSDO>
F 13

>  <SCORE>
-5.638

>  <RMSD_LB>
7.823

>  <RMSD_UB>
11.584

$$$$
CHEMBL313885
 OpenBabel10172500513D

 25 25  0  0  0  0  0  0  0  0999 V2000
  136.3030  136.0390  152.0020 C   0  0  0  0  0  0  0  0  0  0  0  0
  136.4630  136.7220  153.0110 O   0  0  0  0  0  0  0  0  0  0  0  0
  136.8010  136.3900  150.7700 N   0  0  0  0  0  0  0  0  0  0  0  0
  136.6330  135.8020  149.9980 H   0  0  0  0  0  0  0  0  0  0  0  0
  135.5080  134.7450  151.9900 C   0  0  0  0  0  2  0  0  0  0  0  0
  135.3860  134.1910  150.5710 C   0  0  0  0  0  2  0  0  0  0  0  0
  134.1050  133.3890  150.3630 C   0  0  0  0  0  2  0  0  0  0  0  0
  134.1310  132.6920  149.0000 C   0  0  0  0  0  2  0  0  0  0  0  0
  133.1400  133.3220  148.0250 C   0  0  0  0  0  2  0  0  0  0  0  0
  133.8680  133.9770  146.8530 C   0  0  0  0  0  2  0  0  0  0  0  0
  134.3540  135.3790  147.2160 C   0  0  0  0  0  2  0  0  0  0  0  0
  133.3920  136.4470  146.6950 C   0  0  0  0  0  2  0  0  0  0  0  0
  132.8540  136.9760  149.0850 C   0  0  0  0  0  2  0  0  0  0  0  0
  132.5050  136.9600  147.7930 C   0  0  0  0  0  3  0  0  0  0  0  0
  137.5670  137.6030  150.5820 C   0  0  0  0  0  2  0  0  0  0  0  0
  139.0520  137.3580  150.6440 C   0  0  0  0  0  0  0  0  0  0  0  0
  139.7290  136.8360  149.5360 C   0  0  0  0  0  3  0  0  0  0  0  0
  141.0990  136.5820  149.5970 C   0  0  0  0  0  3  0  0  0  0  0  0
  141.8160  136.8600  150.7650 C   0  0  0  0  0  0  0  0  0  0  0  0
  141.1670  137.3990  151.8810 C   0  0  0  0  0  0  0  0  0  0  0  0
  139.7860  137.6460  151.8040 C   0  0  0  0  0  3  0  0  0  0  0  0
  143.1560  136.5870  150.7750 O   0  0  0  0  0  0  0  0  0  0  0  0
  143.5090  135.9480  150.1880 H   0  0  0  0  0  0  0  0  0  0  0  0
  141.7020  137.7330  153.0970 O   0  0  0  0  0  0  0  0  0  0  0  0
  142.4190  138.9550  153.1980 C   0  0  0  0  0  1  0  0  0  0  0  0
  1  2  2  0  0  0  0
  3  1  1  0  0  0  0
  4  3  1  0  0  0  0
  5  1  1  0  0  0  0
  6  5  1  0  0  0  0
  7  6  1  0  0  0  0
  8  7  1  0  0  0  0
  9  8  1  0  0  0  0
 10 11  1  0  0  0  0
 10  9  1  0  0  0  0
 12 11  1  0  0  0  0
 12 14  1  0  0  0  0
 14 13  2  0  0  0  0
 15 16  1  0  0  0  0
 15  3  1  0  0  0  0
 16 21  1  0  0  0  0
 17 18  1  0  0  0  0
 17 16  2  0  0  0  0
 18 19  2  0  0  0  0
 19 22  1  0  0  0  0
 19 20  1  0  0  0  0
 20 24  1  0  0  0  0
 21 20  2  0  0  0  0
 23 22  1  0  0  0  0
 24 25  1  0  0  0  0
M  END
>  <MODEL>
5

>  <REMARK>
 VINA RESULT:    -5.622      2.708      4.105
 INTER + INTRA:         -11.381
 INTER:                  -9.984
 INTRA:                  -1.396
 UNBOUND:                -1.650
  Name = CHEMBL313885
  14 active torsions:
  status: ('A' for Active; 'I' for Inactive)
    1  A    between atoms: C_2  and  C_3
    2  A    between atoms: C_3  and  C_4
    3  A    between atoms: C_4  and  C_5
    4  A    between atoms: C_5  and  C_6
    5  A    between atoms: C_6  and  C_7
    6  A    between atoms: C_7  and  C_8
    7  A    between atoms: C_8  and  C_9
    8  A    between atoms: C_9  and  C_10
    9  A    between atoms: C_10  and  C_11
   10  A    between atoms: N_13  and  C_14
   11  A    between atoms: C_14  and  C_15
   12  A    between atoms: C_18  and  O_19
   13  A    between atoms: C_20  and  O_21
   14  A    between atoms: O_21  and  C_22
                            x       y       z     vdW  Elec       q    Type
                         _______ _______ _______ _____ _____    ______ ____

>  <TORSDO>
F 13

>  <SCORE>
-5.622

>  <RMSD_LB>
2.708

>  <RMSD_UB>
4.105

$$$$
CHEMBL313885
 OpenBabel10172500513D

 25 25  0  0  0  0  0  0  0  0999 V2000
  145.8470  141.1290  149.8630 C   0  0  0  0  0  0  0  0  0  0  0  0
  146.2440  140.8370  148.7370 O   0  0  0  0  0  0  0  0  0  0  0  0
  144.5970  140.7960  150.3280 N   0  0  0  0  0  0  0  0  0  0  0  0
  144.3360  141.0630  151.2390 H   0  0  0  0  0  0  0  0  0  0  0  0
  146.6760  141.9180  150.8600 C   0  0  0  0  0  2  0  0  0  0  0  0
  145.8150  142.4030  152.0250 C   0  0  0  0  0  2  0  0  0  0  0  0
  146.3880  142.0060  153.3830 C   0  0  0  0  0  2  0  0  0  0  0  0
  147.9180  142.0130  153.3360 C   0  0  0  0  0  2  0  0  0  0  0  0
  148.5100  140.8070  154.0610 C   0  0  0  0  0  2  0  0  0  0  0  0
  147.4080  139.8680  154.5490 C   0  0  0  0  0  2  0  0  0  0  0  0
  147.8080  138.4040  154.3720 C   0  0  0  0  0  2  0  0  0  0  0  0
  148.1170  138.0920  152.9070 C   0  0  0  0  0  2  0  0  0  0  0  0
  145.8960  137.5860  151.8610 C   0  0  0  0  0  2  0  0  0  0  0  0
  146.9410  138.4050  152.0280 C   0  0  0  0  0  3  0  0  0  0  0  0
  143.6560  140.0620  149.5100 C   0  0  0  0  0  2  0  0  0  0  0  0
  142.3780  139.7520  150.2470 C   0  0  0  0  0  0  0  0  0  0  0  0
  141.1390  140.0090  149.6510 C   0  0  0  0  0  3  0  0  0  0  0  0
  139.9540  139.7490  150.3390 C   0  0  0  0  0  3  0  0  0  0  0  0
  139.9910  139.2140  151.6300 C   0  0  0  0  0  0  0  0  0  0  0  0
  141.2170  138.9320  152.2430 C   0  0  0  0  0  0  0  0  0  0  0  0
  142.4010  139.2020  151.5380 C   0  0  0  0  0  3  0  0  0  0  0  0
  138.8010  138.9840  152.2640 O   0  0  0  0  0  0  0  0  0  0  0  0
  138.7070  138.2450  152.8320 H   0  0  0  0  0  0  0  0  0  0  0  0
  141.4450  138.4100  153.4890 O   0  0  0  0  0  0  0  0  0  0  0  0
  142.7100  137.8160  153.7430 C   0  0  0  0  0  1  0  0  0  0  0  0
  1  3  1  0  0  0  0
  1  5  1  0  0  0  0
  2  1  2  0  0  0  0
  3  4  1  0  0  0  0
  5  6  1  0  0  0  0
  6  7  1  0  0  0  0
  8  7  1  0  0  0  0
  8  9  1  0  0  0  0
  9 10  1  0  0  0  0
 11 10  1  0  0  0  0
 12 11  1  0  0  0  0
 13 14  2  0  0  0  0
 14 12  1  0  0  0  0
 15 16  1  0  0  0  0
 15  3  1  0  0  0  0
 16 21  1  0  0  0  0
 17 16  2  0  0  0  0
 17 18  1  0  0  0  0
 18 19  2  0  0  0  0
 19 20  1  0  0  0  0
 19 22  1  0  0  0  0
 20 24  1  0  0  0  0
 21 20  2  0  0  0  0
 22 23  1  0  0  0  0
 24 25  1  0  0  0  0
M  END
>  <MODEL>
6

>  <REMARK>
 VINA RESULT:    -5.570      8.088     11.782
 INTER + INTRA:         -11.290
 INTER:                  -9.416
 INTRA:                  -1.873
 UNBOUND:                -1.650
  Name = CHEMBL313885
  14 active torsions:
  status: ('A' for Active; 'I' for Inactive)
    1  A    between atoms: C_2  and  C_3
    2  A    between atoms: C_3  and  C_4
    3  A    between atoms: C_4  and  C_5
    4  A    between atoms: C_5  and  C_6
    5  A    between atoms: C_6  and  C_7
    6  A    between atoms: C_7  and  C_8
    7  A    between atoms: C_8  and  C_9
    8  A    between atoms: C_9  and  C_10
    9  A    between atoms: C_10  and  C_11
   10  A    between atoms: N_13  and  C_14
   11  A    between atoms: C_14  and  C_15
   12  A    between atoms: C_18  and  O_19
   13  A    between atoms: C_20  and  O_21
   14  A    between atoms: O_21  and  C_22
                            x       y       z     vdW  Elec       q    Type
                         _______ _______ _______ _____ _____    ______ ____

>  <TORSDO>
F 13

>  <SCORE>
-5.570

>  <RMSD_LB>
8.088

>  <RMSD_UB>
11.782

$$$$
CHEMBL313885
 OpenBabel10172500513D

 25 25  0  0  0  0  0  0  0  0999 V2000
  135.2350  133.6960  147.3150 C   0  0  0  0  0  0  0  0  0  0  0  0
  135.2840  134.1760  146.1840 O   0  0  0  0  0  0  0  0  0  0  0  0
  136.2840  133.7530  148.2010 N   0  0  0  0  0  0  0  0  0  0  0  0
  136.1830  133.3440  149.0910 H   0  0  0  0  0  0  0  0  0  0  0  0
  134.0220  132.9570  147.8530 C   0  0  0  0  0  2  0  0  0  0  0  0
  133.9090  133.1230  149.3680 C   0  0  0  0  0  2  0  0  0  0  0  0
  132.5530  133.6760  149.7970 C   0  0  0  0  0  2  0  0  0  0  0  0
  132.7370  134.7910  150.8300 C   0  0  0  0  0  2  0  0  0  0  0  0
  132.5790  136.1740  150.2020 C   0  0  0  0  0  2  0  0  0  0  0  0
  133.9350  136.7450  149.7930 C   0  0  0  0  0  2  0  0  0  0  0  0
  134.0280  136.9210  148.2780 C   0  0  0  0  0  2  0  0  0  0  0  0
  132.6550  136.7720  147.6210 C   0  0  0  0  0  2  0  0  0  0  0  0
  133.4050  136.9690  145.2380 C   0  0  0  0  0  2  0  0  0  0  0  0
  132.6400  137.3880  146.2530 C   0  0  0  0  0  3  0  0  0  0  0  0
  137.5320  134.3990  147.8570 C   0  0  0  0  0  2  0  0  0  0  0  0
  137.6010  135.8160  148.3640 C   0  0  0  0  0  0  0  0  0  0  0  0
  137.5020  136.0820  149.7340 C   0  0  0  0  0  3  0  0  0  0  0  0
  137.5390  137.3940  150.2060 C   0  0  0  0  0  3  0  0  0  0  0  0
  137.6900  138.4600  149.3140 C   0  0  0  0  0  0  0  0  0  0  0  0
  137.8080  138.2210  147.9410 C   0  0  0  0  0  0  0  0  0  0  0  0
  137.7660  136.8940  147.4810 C   0  0  0  0  0  3  0  0  0  0  0  0
  137.7140  139.7270  149.8280 O   0  0  0  0  0  0  0  0  0  0  0  0
  138.4780  140.0400  150.2710 H   0  0  0  0  0  0  0  0  0  0  0  0
  137.9620  139.1310  146.9280 O   0  0  0  0  0  0  0  0  0  0  0  0
  136.8540  139.3740  146.0740 C   0  0  0  0  0  1  0  0  0  0  0  0
  1  5  1  0  0  0  0
  1  3  1  0  0  0  0
  2  1  2  0  0  0  0
  3  4  1  0  0  0  0
  5  6  1  0  0  0  0
  6  7  1  0  0  0  0
  7  8  1  0  0  0  0
  9  8  1  0  0  0  0
 10  9  1  0  0  0  0
 11 10  1  0  0  0  0
 12 11  1  0  0  0  0
 13 14  2  0  0  0  0
 14 12  1  0  0  0  0
 15  3  1  0  0  0  0
 15 16  1  0  0  0  0
 16 17  1  0  0  0  0
 17 18  2  0  0  0  0
 19 22  1  0  0  0  0
 19 18  1  0  0  0  0
 20 19  2  0  0  0  0
 21 20  1  0  0  0  0
 21 16  2  0  0  0  0
 22 23  1  0  0  0  0
 24 20  1  0  0  0  0
 25 24  1  0  0  0  0
M  END
>  <MODEL>
7

>  <REMARK>
 VINA RESULT:    -5.508      0.991      2.152
 INTER + INTRA:         -11.183
 INTER:                  -8.832
 INTRA:                  -2.351
 UNBOUND:                -1.650
  Name = CHEMBL313885
  14 active torsions:
  status: ('A' for Active; 'I' for Inactive)
    1  A    between atoms: C_2  and  C_3
    2  A    between atoms: C_3  and  C_4
    3  A    between atoms: C_4  and  C_5
    4  A    between atoms: C_5  and  C_6
    5  A    between atoms: C_6  and  C_7
    6  A    between atoms: C_7  and  C_8
    7  A    between atoms: C_8  and  C_9
    8  A    between atoms: C_9  and  C_10
    9  A    between atoms: C_10  and  C_11
   10  A    between atoms: N_13  and  C_14
   11  A    between atoms: C_14  and  C_15
   12  A    between atoms: C_18  and  O_19
   13  A    between atoms: C_20  and  O_21
   14  A    between atoms: O_21  and  C_22
                            x       y       z     vdW  Elec       q    Type
                         _______ _______ _______ _____ _____    ______ ____

>  <TORSDO>
F 13

>  <SCORE>
-5.508

>  <RMSD_LB>
0.991

>  <RMSD_UB>
2.152

$$$$
CHEMBL313885
 OpenBabel10172500513D

 25 25  0  0  0  0  0  0  0  0999 V2000
  137.8550  138.1290  155.4660 C   0  0  0  0  0  0  0  0  0  0  0  0
  136.9550  138.9480  155.6340 O   0  0  0  0  0  0  0  0  0  0  0  0
  137.6570  136.7700  155.5360 N   0  0  0  0  0  0  0  0  0  0  0  0
  138.4210  136.1650  155.3970 H   0  0  0  0  0  0  0  0  0  0  0  0
  139.2970  138.5190  155.1940 C   0  0  0  0  0  2  0  0  0  0  0  0
  139.7880  137.9180  153.8780 C   0  0  0  0  0  2  0  0  0  0  0  0
  139.7450  138.9160  152.7250 C   0  0  0  0  0  2  0  0  0  0  0  0
  141.0170  138.8070  151.8800 C   0  0  0  0  0  2  0  0  0  0  0  0
  141.4260  137.3530  151.6600 C   0  0  0  0  0  2  0  0  0  0  0  0
  141.1770  136.9290  150.2140 C   0  0  0  0  0  2  0  0  0  0  0  0
  142.4910  136.6740  149.4770 C   0  0  0  0  0  2  0  0  0  0  0  0
  143.6630  136.5870  150.4560 C   0  0  0  0  0  2  0  0  0  0  0  0
  144.4580  138.8160  149.6310 C   0  0  0  0  0  2  0  0  0  0  0  0
  144.7200  137.6010  150.1270 C   0  0  0  0  0  3  0  0  0  0  0  0
  136.3520  136.2090  155.8090 C   0  0  0  0  0  2  0  0  0  0  0  0
  135.5960  135.8790  154.5480 C   0  0  0  0  0  0  0  0  0  0  0  0
  134.2570  135.4800  154.6100 C   0  0  0  0  0  3  0  0  0  0  0  0
  133.5610  135.1470  153.4490 C   0  0  0  0  0  3  0  0  0  0  0  0
  134.1910  135.2220  152.2030 C   0  0  0  0  0  0  0  0  0  0  0  0
  135.5250  135.6350  152.1100 C   0  0  0  0  0  0  0  0  0  0  0  0
  136.2130  135.9630  153.2900 C   0  0  0  0  0  3  0  0  0  0  0  0
  133.4660  134.8790  151.0950 O   0  0  0  0  0  0  0  0  0  0  0  0
  133.6860  134.1080  150.6110 H   0  0  0  0  0  0  0  0  0  0  0  0
  136.2980  135.7690  150.9870 O   0  0  0  0  0  0  0  0  0  0  0  0
  137.2430  136.8280  150.9490 C   0  0  0  0  0  1  0  0  0  0  0  0
  1  3  1  0  0  0  0
  1  2  2  0  0  0  0
  3 15  1  0  0  0  0
  4  3  1  0  0  0  0
  5  1  1  0  0  0  0
  6  5  1  0  0  0  0
  7  6  1  0  0  0  0
  8  7  1  0  0  0  0
  9  8  1  0  0  0  0
 10  9  1  0  0  0  0
 11 10  1  0  0  0  0
 11 12  1  0  0  0  0
 13 14  2  0  0  0  0
 14 12  1  0  0  0  0
 16 17  1  0  0  0  0
 16 15  1  0  0  0  0
 18 17  2  0  0  0  0
 19 18  1  0  0  0  0
 20 19  2  0  0  0  0
 20 21  1  0  0  0  0
 21 16  2  0  0  0  0
 22 19  1  0  0  0  0
 23 22  1  0  0  0  0
 24 20  1  0  0  0  0
 25 24  1  0  0  0  0
M  END
>  <MODEL>
8

>  <REMARK>
 VINA RESULT:    -5.090      4.247      8.464
 INTER + INTRA:         -10.459
 INTER:                  -9.181
 INTRA:                  -1.277
 UNBOUND:                -1.650
  Name = CHEMBL313885
  14 active torsions:
  status: ('A' for Active; 'I' for Inactive)
    1  A    between atoms: C_2  and  C_3
    2  A    between atoms: C_3  and  C_4
    3  A    between atoms: C_4  and  C_5
    4  A    between atoms: C_5  and  C_6
    5  A    between atoms: C_6  and  C_7
    6  A    between atoms: C_7  and  C_8
    7  A    between atoms: C_8  and  C_9
    8  A    between atoms: C_9  and  C_10
    9  A    between atoms: C_10  and  C_11
   10  A    between atoms: N_13  and  C_14
   11  A    between atoms: C_14  and  C_15
   12  A    between atoms: C_18  and  O_19
   13  A    between atoms: C_20  and  O_21
   14  A    between atoms: O_21  and  C_22
                            x       y       z     vdW  Elec       q    Type
                         _______ _______ _______ _____ _____    ______ ____

>  <TORSDO>
F 13

>  <SCORE>
-5.090

>  <RMSD_LB>
4.247

>  <RMSD_UB>
8.464

$$$$
CHEMBL313885
 OpenBabel10172500513D

 25 25  0  0  0  0  0  0  0  0999 V2000
  132.8330  135.2930  148.3110 C   0  0  0  0  0  0  0  0  0  0  0  0
  132.9100  135.9620  149.3390 O   0  0  0  0  0  0  0  0  0  0  0  0
  132.7630  135.8480  147.0560 N   0  0  0  0  0  0  0  0  0  0  0  0
  132.6970  135.2570  146.2720 H   0  0  0  0  0  0  0  0  0  0  0  0
  132.7740  133.7750  148.3080 C   0  0  0  0  0  2  0  0  0  0  0  0
  133.7170  133.1930  147.2560 C   0  0  0  0  0  2  0  0  0  0  0  0
  135.1050  132.8930  147.8130 C   0  0  0  0  0  2  0  0  0  0  0  0
  136.0920  133.9870  147.3980 C   0  0  0  0  0  2  0  0  0  0  0  0
  136.7500  133.6740  146.0570 C   0  0  0  0  0  2  0  0  0  0  0  0
  136.9390  132.1690  145.8790 C   0  0  0  0  0  2  0  0  0  0  0  0
  136.8070  131.7630  144.4120 C   0  0  0  0  0  2  0  0  0  0  0  0
  136.2910  132.9260  143.5640 C   0  0  0  0  0  2  0  0  0  0  0  0
  138.0360  132.6950  141.7790 C   0  0  0  0  0  2  0  0  0  0  0  0
  136.7520  132.8040  142.1400 C   0  0  0  0  0  3  0  0  0  0  0  0
  132.7830  137.2820  146.8610 C   0  0  0  0  0  2  0  0  0  0  0  0
  134.0970  137.7650  146.3040 C   0  0  0  0  0  0  0  0  0  0  0  0
  135.2650  137.6710  147.0670 C   0  0  0  0  0  3  0  0  0  0  0  0
  136.4790  138.1410  146.5670 C   0  0  0  0  0  3  0  0  0  0  0  0
  136.5450  138.7010  145.2870 C   0  0  0  0  0  0  0  0  0  0  0  0
  135.3940  138.7910  144.4960 C   0  0  0  0  0  0  0  0  0  0  0  0
  134.1790  138.3160  145.0160 C   0  0  0  0  0  3  0  0  0  0  0  0
  137.7580  139.1530  144.8460 O   0  0  0  0  0  0  0  0  0  0  0  0
  137.8770  139.3730  143.9430 H   0  0  0  0  0  0  0  0  0  0  0  0
  135.2700  139.3030  143.2310 O   0  0  0  0  0  0  0  0  0  0  0  0
  134.4560  138.6000  142.3040 C   0  0  0  0  0  1  0  0  0  0  0  0
  1  2  2  0  0  0  0
  3  1  1  0  0  0  0
  4  3  1  0  0  0  0
  5  1  1  0  0  0  0
  6  7  1  0  0  0  0
  6  5  1  0  0  0  0
  8  7  1  0  0  0  0
  9  8  1  0  0  0  0
 10  9  1  0  0  0  0
 11 10  1  0  0  0  0
 12 11  1  0  0  0  0
 13 14  2  0  0  0  0
 14 12  1  0  0  0  0
 15  3  1  0  0  0  0
 16 15  1  0  0  0  0
 16 17  1  0  0  0  0
 18 17  2  0  0  0  0
 19 18  1  0  0  0  0
 20 21  1  0  0  0  0
 20 19  2  0  0  0  0
 21 16  2  0  0  0  0
 22 19  1  0  0  0  0
 23 22  1  0  0  0  0
 24 20  1  0  0  0  0
 25 24  1  0  0  0  0
M  END
>  <MODEL>
9

>  <REMARK>
 VINA RESULT:    -5.086      3.268      5.832
 INTER + INTRA:         -10.453
 INTER:                  -8.803
 INTRA:                  -1.650
 UNBOUND:                -1.650
  Name = CHEMBL313885
  14 active torsions:
  status: ('A' for Active; 'I' for Inactive)
    1  A    between atoms: C_2  and  C_3
    2  A    between atoms: C_3  and  C_4
    3  A    between atoms: C_4  and  C_5
    4  A    between atoms: C_5  and  C_6
    5  A    between atoms: C_6  and  C_7
    6  A    between atoms: C_7  and  C_8
    7  A    between atoms: C_8  and  C_9
    8  A    between atoms: C_9  and  C_10
    9  A    between atoms: C_10  and  C_11
   10  A    between atoms: N_13  and  C_14
   11  A    between atoms: C_14  and  C_15
   12  A    between atoms: C_18  and  O_19
   13  A    between atoms: C_20  and  O_21
   14  A    between atoms: O_21  and  C_22
                            x       y       z     vdW  Elec       q    Type
                         _______ _______ _______ _____ _____    ______ ____

>  <TORSDO>
F 13

>  <SCORE>
-5.086

>  <RMSD_LB>
3.268

>  <RMSD_UB>
5.832

$$$$
