CHEMBL1562
 OpenBabel10172500193D

 14 14  0  0  0  0  0  0  0  0999 V2000
  136.6420  136.4010  157.9890 C   0  0  0  0  0  0  0  0  0  0  0  0
  136.0800  135.6640  156.9400 C   0  0  0  0  0  3  0  0  0  0  0  0
  136.3250  136.0090  155.5970 C   0  0  0  0  0  0  0  0  0  0  0  0
  137.1110  137.1380  155.3230 C   0  0  0  0  0  3  0  0  0  0  0  0
  137.6640  137.8890  156.3610 C   0  0  0  0  0  3  0  0  0  0  0  0
  137.4330  137.5150  157.6830 C   0  0  0  0  0  0  0  0  0  0  0  0
  135.1620  136.2730  159.8540 C   0  0  0  0  0  1  0  0  0  0  0  0
  136.4710  136.1220  159.3200 O   0  0  0  0  0  0  0  0  0  0  0  0
  137.9780  138.2510  158.7010 O   0  0  0  0  0  0  0  0  0  0  0  0
  138.9090  138.3230  158.7810 H   0  0  0  0  0  0  0  0  0  0  0  0
  135.6820  135.2550  154.4540 C   0  0  0  0  0  2  0  0  0  0  0  0
  134.2980  135.7200  154.0560 C   0  0  0  0  0  0  0  0  0  0  0  0
  134.0750  136.4640  153.1140 O   0  0  0  0  0  0  0  0  0  0  0  0
  133.3050  135.2110  154.8210 O   0  0  0  0  0  1  0  0  0  0  0  0
  1  8  1  0  0  0  0
  2  1  2  0  0  0  0
  3  2  1  0  0  0  0
  4  3  2  0  0  0  0
  4  5  1  0  0  0  0
  5  6  2  0  0  0  0
  6  1  1  0  0  0  0
  6  9  1  0  0  0  0
  8  7  1  0  0  0  0
  9 10  1  0  0  0  0
 11  3  1  0  0  0  0
 12 11  1  0  0  0  0
 12 14  1  0  0  0  0
 13 12  2  0  0  0  0
M  END
>  <MODEL>
1

>  <REMARK>
 VINA RESULT:    -5.357      0.000      0.000
 INTER + INTRA:          -6.653
 INTER:                  -6.455
 INTRA:                  -0.199
 UNBOUND:                -0.200
  Name = CHEMBL1562
  5 active torsions:
  status: ('A' for Active; 'I' for Inactive)
    1  A    between atoms: C_1  and  O_2
    2  A    between atoms: O_2  and  C_3
    3  A    between atoms: C_5  and  C_6
    4  A    between atoms: C_6  and  C_7
    5  A    between atoms: C_12  and  O_13
                            x       y       z     vdW  Elec       q    Type
                         _______ _______ _______ _____ _____    ______ ____

>  <TORSDO>
F 4

>  <SCORE>
-5.357

>  <RMSD_LB>
0.000

>  <RMSD_UB>
0.000

$$$$
CHEMBL1562
 OpenBabel10172500193D

 14 14  0  0  0  0  0  0  0  0999 V2000
  137.9090  137.8780  155.5980 C   0  0  0  0  0  0  0  0  0  0  0  0
  137.2270  137.1270  154.6330 C   0  0  0  0  0  3  0  0  0  0  0  0
  136.4130  136.0400  155.0000 C   0  0  0  0  0  0  0  0  0  0  0  0
  136.3290  135.6870  156.3550 C   0  0  0  0  0  3  0  0  0  0  0  0
  137.0160  136.4180  157.3250 C   0  0  0  0  0  3  0  0  0  0  0  0
  137.7950  137.5100  156.9440 C   0  0  0  0  0  0  0  0  0  0  0  0
  139.5240  138.8950  154.1690 C   0  0  0  0  0  1  0  0  0  0  0  0
  138.7050  138.9610  155.3290 O   0  0  0  0  0  0  0  0  0  0  0  0
  138.4670  138.2280  157.8960 O   0  0  0  0  0  0  0  0  0  0  0  0
  138.0860  138.3550  158.7430 H   0  0  0  0  0  0  0  0  0  0  0  0
  135.7140  135.1870  153.9650 C   0  0  0  0  0  2  0  0  0  0  0  0
  134.2550  135.5080  153.7250 C   0  0  0  0  0  0  0  0  0  0  0  0
  133.3450  135.1090  154.4350 O   0  0  0  0  0  1  0  0  0  0  0  0
  134.0360  136.3130  152.6590 O   0  0  0  0  0  0  0  0  0  0  0  0
  1  6  1  0  0  0  0
  2  3  1  0  0  0  0
  2  1  2  0  0  0  0
  3  4  2  0  0  0  0
  4  5  1  0  0  0  0
  6  5  2  0  0  0  0
  6  9  1  0  0  0  0
  7  8  1  0  0  0  0
  8  1  1  0  0  0  0
  9 10  1  0  0  0  0
 11  3  1  0  0  0  0
 12 11  1  0  0  0  0
 12 13  1  0  0  0  0
 14 12  2  0  0  0  0
M  END
>  <MODEL>
2

>  <REMARK>
 VINA RESULT:    -5.312      1.424      3.109
 INTER + INTRA:          -6.599
 INTER:                  -6.404
 INTRA:                  -0.195
 UNBOUND:                -0.200
  Name = CHEMBL1562
  5 active torsions:
  status: ('A' for Active; 'I' for Inactive)
    1  A    between atoms: C_1  and  O_2
    2  A    between atoms: O_2  and  C_3
    3  A    between atoms: C_5  and  C_6
    4  A    between atoms: C_6  and  C_7
    5  A    between atoms: C_12  and  O_13
                            x       y       z     vdW  Elec       q    Type
                         _______ _______ _______ _____ _____    ______ ____

>  <TORSDO>
F 4

>  <SCORE>
-5.312

>  <RMSD_LB>
1.424

>  <RMSD_UB>
3.109

$$$$
CHEMBL1562
 OpenBabel10172500193D

 14 14  0  0  0  0  0  0  0  0999 V2000
  135.3420  135.8820  153.6660 C   0  0  0  0  0  0  0  0  0  0  0  0
  136.4470  136.2790  154.4280 C   0  0  0  0  0  3  0  0  0  0  0  0
  136.5650  135.9150  155.7830 C   0  0  0  0  0  0  0  0  0  0  0  0
  135.5290  135.1790  156.3770 C   0  0  0  0  0  3  0  0  0  0  0  0
  134.4150  134.7900  155.6310 C   0  0  0  0  0  3  0  0  0  0  0  0
  134.3300  135.1360  154.2840 C   0  0  0  0  0  0  0  0  0  0  0  0
  135.9240  135.4390  151.3970 C   0  0  0  0  0  1  0  0  0  0  0  0
  135.1580  136.1760  152.3410 O   0  0  0  0  0  0  0  0  0  0  0  0
  133.2380  134.7530  153.5530 O   0  0  0  0  0  0  0  0  0  0  0  0
  133.1220  135.0740  152.6800 H   0  0  0  0  0  0  0  0  0  0  0  0
  137.7260  136.3810  156.6320 C   0  0  0  0  0  2  0  0  0  0  0  0
  137.6170  137.7870  157.1800 C   0  0  0  0  0  0  0  0  0  0  0  0
  136.6590  138.5200  156.9890 O   0  0  0  0  0  0  0  0  0  0  0  0
  138.6710  138.1650  157.9400 O   0  0  0  0  0  1  0  0  0  0  0  0
  1  6  2  0  0  0  0
  1  2  1  0  0  0  0
  2  3  2  0  0  0  0
  3  4  1  0  0  0  0
  3 11  1  0  0  0  0
  5  4  2  0  0  0  0
  6  5  1  0  0  0  0
  7  8  1  0  0  0  0
  8  1  1  0  0  0  0
  9  6  1  0  0  0  0
 10  9  1  0  0  0  0
 11 12  1  0  0  0  0
 12 14  1  0  0  0  0
 13 12  2  0  0  0  0
M  END
>  <MODEL>
3

>  <REMARK>
 VINA RESULT:    -5.257      1.701      5.374
 INTER + INTRA:          -6.533
 INTER:                  -6.370
 INTRA:                  -0.162
 UNBOUND:                -0.200
  Name = CHEMBL1562
  5 active torsions:
  status: ('A' for Active; 'I' for Inactive)
    1  A    between atoms: C_1  and  O_2
    2  A    between atoms: O_2  and  C_3
    3  A    between atoms: C_5  and  C_6
    4  A    between atoms: C_6  and  C_7
    5  A    between atoms: C_12  and  O_13
                            x       y       z     vdW  Elec       q    Type
                         _______ _______ _______ _____ _____    ______ ____

>  <TORSDO>
F 4

>  <SCORE>
-5.257

>  <RMSD_LB>
1.701

>  <RMSD_UB>
5.374

$$$$
CHEMBL1562
 OpenBabel10172500193D

 14 14  0  0  0  0  0  0  0  0999 V2000
  144.6650  140.2170  151.8000 C   0  0  0  0  0  0  0  0  0  0  0  0
  145.4400  140.5300  152.9230 C   0  0  0  0  0  3  0  0  0  0  0  0
  146.2960  141.6480  152.9270 C   0  0  0  0  0  0  0  0  0  0  0  0
  146.3970  142.4240  151.7640 C   0  0  0  0  0  3  0  0  0  0  0  0
  145.6410  142.1130  150.6320 C   0  0  0  0  0  3  0  0  0  0  0  0
  144.7770  141.0190  150.6580 C   0  0  0  0  0  0  0  0  0  0  0  0
  144.1990  137.9360  152.3160 C   0  0  0  0  0  1  0  0  0  0  0  0
  143.7940  139.1610  151.7200 O   0  0  0  0  0  0  0  0  0  0  0  0
  144.0350  140.7150  149.5490 O   0  0  0  0  0  0  0  0  0  0  0  0
  143.2160  141.1460  149.4010 H   0  0  0  0  0  0  0  0  0  0  0  0
  147.1780  141.9680  154.1130 C   0  0  0  0  0  2  0  0  0  0  0  0
  148.6160  141.5080  154.0060 C   0  0  0  0  0  0  0  0  0  0  0  0
  149.5000  142.1560  153.4680 O   0  0  0  0  0  0  0  0  0  0  0  0
  148.8570  140.3120  154.5930 O   0  0  0  0  0  1  0  0  0  0  0  0
  1  2  1  0  0  0  0
  2  3  2  0  0  0  0
  3 11  1  0  0  0  0
  4  3  1  0  0  0  0
  5  6  1  0  0  0  0
  5  4  2  0  0  0  0
  6  1  2  0  0  0  0
  8  1  1  0  0  0  0
  8  7  1  0  0  0  0
  9  6  1  0  0  0  0
 10  9  1  0  0  0  0
 12 11  1  0  0  0  0
 12 14  1  0  0  0  0
 13 12  2  0  0  0  0
M  END
>  <MODEL>
4

>  <REMARK>
 VINA RESULT:    -5.182     10.432     12.656
 INTER + INTRA:          -6.442
 INTER:                  -6.246
 INTRA:                  -0.196
 UNBOUND:                -0.200
  Name = CHEMBL1562
  5 active torsions:
  status: ('A' for Active; 'I' for Inactive)
    1  A    between atoms: C_1  and  O_2
    2  A    between atoms: O_2  and  C_3
    3  A    between atoms: C_5  and  C_6
    4  A    between atoms: C_6  and  C_7
    5  A    between atoms: C_12  and  O_13
                            x       y       z     vdW  Elec       q    Type
                         _______ _______ _______ _____ _____    ______ ____

>  <TORSDO>
F 4

>  <SCORE>
-5.182

>  <RMSD_LB>
10.432

>  <RMSD_UB>
12.656

$$$$
CHEMBL1562
 OpenBabel10172500193D

 14 14  0  0  0  0  0  0  0  0999 V2000
  146.2970  139.6320  154.2640 C   0  0  0  0  0  0  0  0  0  0  0  0
  145.6710  140.4330  153.3010 C   0  0  0  0  0  3  0  0  0  0  0  0
  146.3160  141.5630  152.7650 C   0  0  0  0  0  0  0  0  0  0  0  0
  147.5880  141.9070  153.2460 C   0  0  0  0  0  3  0  0  0  0  0  0
  148.2160  141.1250  154.2170 C   0  0  0  0  0  3  0  0  0  0  0  0
  147.5730  139.9930  154.7150 C   0  0  0  0  0  0  0  0  0  0  0  0
  145.6040  137.3690  153.9840 C   0  0  0  0  0  1  0  0  0  0  0  0
  145.7500  138.5070  154.8220 O   0  0  0  0  0  0  0  0  0  0  0  0
  148.1900  139.2260  155.6660 O   0  0  0  0  0  0  0  0  0  0  0  0
  148.0760  138.2960  155.6650 H   0  0  0  0  0  0  0  0  0  0  0  0
  145.6320  142.4670  151.7630 C   0  0  0  0  0  2  0  0  0  0  0  0
  146.0560  142.2920  150.3220 C   0  0  0  0  0  0  0  0  0  0  0  0
  146.8630  143.0140  149.7570 O   0  0  0  0  0  1  0  0  0  0  0  0
  145.4830  141.2320  149.7040 O   0  0  0  0  0  0  0  0  0  0  0  0
  1  6  1  0  0  0  0
  1  8  1  0  0  0  0
  2  1  2  0  0  0  0
  3  4  2  0  0  0  0
  3  2  1  0  0  0  0
  4  5  1  0  0  0  0
  5  6  2  0  0  0  0
  6  9  1  0  0  0  0
  7  8  1  0  0  0  0
 10  9  1  0  0  0  0
 11  3  1  0  0  0  0
 12 11  1  0  0  0  0
 13 12  1  0  0  0  0
 14 12  2  0  0  0  0
M  END
>  <MODEL>
5

>  <REMARK>
 VINA RESULT:    -5.116     10.517     12.148
 INTER + INTRA:          -6.363
 INTER:                  -6.152
 INTRA:                  -0.211
 UNBOUND:                -0.200
  Name = CHEMBL1562
  5 active torsions:
  status: ('A' for Active; 'I' for Inactive)
    1  A    between atoms: C_1  and  O_2
    2  A    between atoms: O_2  and  C_3
    3  A    between atoms: C_5  and  C_6
    4  A    between atoms: C_6  and  C_7
    5  A    between atoms: C_12  and  O_13
                            x       y       z     vdW  Elec       q    Type
                         _______ _______ _______ _____ _____    ______ ____

>  <TORSDO>
F 4

>  <SCORE>
-5.116

>  <RMSD_LB>
10.517

>  <RMSD_UB>
12.148

$$$$
CHEMBL1562
 OpenBabel10172500193D

 14 14  0  0  0  0  0  0  0  0999 V2000
  134.0400  134.8510  148.5930 C   0  0  0  0  0  0  0  0  0  0  0  0
  134.8010  134.9730  149.7620 C   0  0  0  0  0  3  0  0  0  0  0  0
  134.4700  134.2510  150.9230 C   0  0  0  0  0  0  0  0  0  0  0  0
  133.3310  133.4340  150.9080 C   0  0  0  0  0  3  0  0  0  0  0  0
  132.5550  133.3150  149.7540 C   0  0  0  0  0  3  0  0  0  0  0  0
  132.9160  134.0170  148.6040 C   0  0  0  0  0  0  0  0  0  0  0  0
  135.0650  136.7000  147.4900 C   0  0  0  0  0  1  0  0  0  0  0  0
  134.3040  135.5020  147.4160 O   0  0  0  0  0  0  0  0  0  0  0  0
  132.1560  133.8990  147.4720 O   0  0  0  0  0  0  0  0  0  0  0  0
  132.4130  133.3040  146.7950 H   0  0  0  0  0  0  0  0  0  0  0  0
  135.2510  134.4130  152.2090 C   0  0  0  0  0  2  0  0  0  0  0  0
  134.4660  134.9310  153.3940 C   0  0  0  0  0  0  0  0  0  0  0  0
  134.0140  134.2160  154.2750 O   0  0  0  0  0  1  0  0  0  0  0  0
  134.3280  136.2770  153.4180 O   0  0  0  0  0  0  0  0  0  0  0  0
  1  6  2  0  0  0  0
  1  2  1  0  0  0  0
  2  3  2  0  0  0  0
  3 11  1  0  0  0  0
  4  3  1  0  0  0  0
  5  4  2  0  0  0  0
  6  5  1  0  0  0  0
  8  7  1  0  0  0  0
  8  1  1  0  0  0  0
  9  6  1  0  0  0  0
 10  9  1  0  0  0  0
 11 12  1  0  0  0  0
 12 14  2  0  0  0  0
 12 13  1  0  0  0  0
M  END
>  <MODEL>
6

>  <REMARK>
 VINA RESULT:    -4.956      4.550      8.454
 INTER + INTRA:          -6.170
 INTER:                  -5.968
 INTRA:                  -0.202
 UNBOUND:                -0.200
  Name = CHEMBL1562
  5 active torsions:
  status: ('A' for Active; 'I' for Inactive)
    1  A    between atoms: C_1  and  O_2
    2  A    between atoms: O_2  and  C_3
    3  A    between atoms: C_5  and  C_6
    4  A    between atoms: C_6  and  C_7
    5  A    between atoms: C_12  and  O_13
                            x       y       z     vdW  Elec       q    Type
                         _______ _______ _______ _____ _____    ______ ____

>  <TORSDO>
F 4

>  <SCORE>
-4.956

>  <RMSD_LB>
4.550

>  <RMSD_UB>
8.454

$$$$
CHEMBL1562
 OpenBabel10172500193D

 14 14  0  0  0  0  0  0  0  0999 V2000
  133.0990  134.7280  149.4230 C   0  0  0  0  0  0  0  0  0  0  0  0
  133.3430  134.6740  148.0460 C   0  0  0  0  0  3  0  0  0  0  0  0
  133.9000  133.5270  147.4500 C   0  0  0  0  0  0  0  0  0  0  0  0
  134.2540  132.4450  148.2700 C   0  0  0  0  0  3  0  0  0  0  0  0
  134.0300  132.4920  149.6470 C   0  0  0  0  0  3  0  0  0  0  0  0
  133.4510  133.6260  150.2140 C   0  0  0  0  0  0  0  0  0  0  0  0
  132.5990  137.0580  149.4300 C   0  0  0  0  0  1  0  0  0  0  0  0
  132.5440  135.7950  150.0790 O   0  0  0  0  0  0  0  0  0  0  0  0
  133.2300  133.6720  151.5640 O   0  0  0  0  0  0  0  0  0  0  0  0
  132.3830  133.4660  151.9070 H   0  0  0  0  0  0  0  0  0  0  0  0
  134.2180  133.4740  145.9730 C   0  0  0  0  0  2  0  0  0  0  0  0
  135.5140  132.7860  145.6020 C   0  0  0  0  0  0  0  0  0  0  0  0
  135.5750  131.6760  145.0970 O   0  0  0  0  0  0  0  0  0  0  0  0
  136.6200  133.5250  145.8510 O   0  0  0  0  0  1  0  0  0  0  0  0
  1  8  1  0  0  0  0
  1  6  1  0  0  0  0
  2  1  2  0  0  0  0
  3  2  1  0  0  0  0
  3  4  2  0  0  0  0
  4  5  1  0  0  0  0
  5  6  2  0  0  0  0
  6  9  1  0  0  0  0
  7  8  1  0  0  0  0
  9 10  1  0  0  0  0
 11  3  1  0  0  0  0
 12 14  1  0  0  0  0
 12 11  1  0  0  0  0
 13 12  2  0  0  0  0
M  END
>  <MODEL>
7

>  <REMARK>
 VINA RESULT:    -4.899      7.510      9.457
 INTER + INTRA:          -6.101
 INTER:                  -5.898
 INTRA:                  -0.203
 UNBOUND:                -0.200
  Name = CHEMBL1562
  5 active torsions:
  status: ('A' for Active; 'I' for Inactive)
    1  A    between atoms: C_1  and  O_2
    2  A    between atoms: O_2  and  C_3
    3  A    between atoms: C_5  and  C_6
    4  A    between atoms: C_6  and  C_7
    5  A    between atoms: C_12  and  O_13
                            x       y       z     vdW  Elec       q    Type
                         _______ _______ _______ _____ _____    ______ ____

>  <TORSDO>
F 4

>  <SCORE>
-4.899

>  <RMSD_LB>
7.510

>  <RMSD_UB>
9.457

$$$$
CHEMBL1562
 OpenBabel10172500193D

 14 14  0  0  0  0  0  0  0  0999 V2000
  135.0450  132.8660  147.2240 C   0  0  0  0  0  0  0  0  0  0  0  0
  134.9540  134.2630  147.2030 C   0  0  0  0  0  3  0  0  0  0  0  0
  134.3890  134.9710  148.2800 C   0  0  0  0  0  0  0  0  0  0  0  0
  133.8730  134.2490  149.3660 C   0  0  0  0  0  3  0  0  0  0  0  0
  133.9440  132.8540  149.3920 C   0  0  0  0  0  3  0  0  0  0  0  0
  134.5330  132.1730  148.3280 C   0  0  0  0  0  0  0  0  0  0  0  0
  136.4360  132.7620  145.2910 C   0  0  0  0  0  1  0  0  0  0  0  0
  135.5960  132.1020  146.2280 O   0  0  0  0  0  0  0  0  0  0  0  0
  134.6040  130.8060  148.3550 O   0  0  0  0  0  0  0  0  0  0  0  0
  135.1110  130.3760  149.0150 H   0  0  0  0  0  0  0  0  0  0  0  0
  134.2350  136.4750  148.2480 C   0  0  0  0  0  2  0  0  0  0  0  0
  132.8170  136.9940  148.3410 C   0  0  0  0  0  0  0  0  0  0  0  0
  132.3070  137.4000  149.3740 O   0  0  0  0  0  1  0  0  0  0  0  0
  132.1540  137.0010  147.1610 O   0  0  0  0  0  0  0  0  0  0  0  0
  1  6  1  0  0  0  0
  2  1  2  0  0  0  0
  2  3  1  0  0  0  0
  3  4  2  0  0  0  0
  4  5  1  0  0  0  0
  6  9  1  0  0  0  0
  6  5  2  0  0  0  0
  7  8  1  0  0  0  0
  8  1  1  0  0  0  0
  9 10  1  0  0  0  0
 11  3  1  0  0  0  0
 11 12  1  0  0  0  0
 12 13  1  0  0  0  0
 14 12  2  0  0  0  0
M  END
>  <MODEL>
8

>  <REMARK>
 VINA RESULT:    -4.688      8.245     10.007
 INTER + INTRA:          -5.848
 INTER:                  -5.648
 INTRA:                  -0.200
 UNBOUND:                -0.200
  Name = CHEMBL1562
  5 active torsions:
  status: ('A' for Active; 'I' for Inactive)
    1  A    between atoms: C_1  and  O_2
    2  A    between atoms: O_2  and  C_3
    3  A    between atoms: C_5  and  C_6
    4  A    between atoms: C_6  and  C_7
    5  A    between atoms: C_12  and  O_13
                            x       y       z     vdW  Elec       q    Type
                         _______ _______ _______ _____ _____    ______ ____

>  <TORSDO>
F 4

>  <SCORE>
-4.688

>  <RMSD_LB>
8.245

>  <RMSD_UB>
10.007

$$$$
CHEMBL1562
 OpenBabel10172500193D

 14 14  0  0  0  0  0  0  0  0999 V2000
  147.2330  139.7230  152.7570 C   0  0  0  0  0  0  0  0  0  0  0  0
  147.0360  140.0540  151.4110 C   0  0  0  0  0  3  0  0  0  0  0  0
  146.6810  141.3610  151.0270 C   0  0  0  0  0  0  0  0  0  0  0  0
  146.4810  142.3260  152.0250 C   0  0  0  0  0  3  0  0  0  0  0  0
  146.6590  142.0040  153.3720 C   0  0  0  0  0  3  0  0  0  0  0  0
  147.0390  140.7120  153.7290 C   0  0  0  0  0  0  0  0  0  0  0  0
  148.9650  138.1190  153.0880 C   0  0  0  0  0  1  0  0  0  0  0  0
  147.5970  138.4830  153.2130 O   0  0  0  0  0  0  0  0  0  0  0  0
  147.2150  140.3970  155.0500 O   0  0  0  0  0  0  0  0  0  0  0  0
  147.6930  139.6270  155.2890 H   0  0  0  0  0  0  0  0  0  0  0  0
  146.4140  141.7200  149.5830 C   0  0  0  0  0  2  0  0  0  0  0  0
  145.7780  140.6340  148.7420 C   0  0  0  0  0  0  0  0  0  0  0  0
  144.6050  140.3030  148.8320 O   0  0  0  0  0  1  0  0  0  0  0  0
  146.6180  140.0700  147.8440 O   0  0  0  0  0  0  0  0  0  0  0  0
  1  8  1  0  0  0  0
  1  6  1  0  0  0  0
  2  1  2  0  0  0  0
  3  2  1  0  0  0  0
  3  4  2  0  0  0  0
  4  5  1  0  0  0  0
  5  6  2  0  0  0  0
  6  9  1  0  0  0  0
  7  8  1  0  0  0  0
  9 10  1  0  0  0  0
 11  3  1  0  0  0  0
 12 13  1  0  0  0  0
 12 11  1  0  0  0  0
 14 12  2  0  0  0  0
M  END
>  <MODEL>
9

>  <REMARK>
 VINA RESULT:    -4.589     12.100     12.697
 INTER + INTRA:          -5.728
 INTER:                  -5.528
 INTRA:                  -0.200
 UNBOUND:                -0.200
  Name = CHEMBL1562
  5 active torsions:
  status: ('A' for Active; 'I' for Inactive)
    1  A    between atoms: C_1  and  O_2
    2  A    between atoms: O_2  and  C_3
    3  A    between atoms: C_5  and  C_6
    4  A    between atoms: C_6  and  C_7
    5  A    between atoms: C_12  and  O_13
                            x       y       z     vdW  Elec       q    Type
                         _______ _______ _______ _____ _____    ______ ____

>  <TORSDO>
F 4

>  <SCORE>
-4.589

>  <RMSD_LB>
12.100

>  <RMSD_UB>
12.697

$$$$
