CHEMBL5281605
 OpenBabel10172500163D

 32 32  0  0  0  0  0  0  0  0999 V2000
  147.8090  137.2450  152.3060 C   0  0  0  0  0  0  0  0  0  0  0  0
  146.4890  137.3900  152.7390 C   0  0  0  0  0  3  0  0  0  0  0  0
  145.4360  136.8450  152.0020 C   0  0  0  0  0  3  0  0  0  0  0  0
  145.6740  136.1410  150.8140 C   0  0  0  0  0  0  0  0  0  0  0  0
  146.9990  136.0010  150.3650 C   0  0  0  0  0  0  0  0  0  0  0  0
  148.0510  136.5280  151.1270 C   0  0  0  0  0  3  0  0  0  0  0  0
  147.4200  135.3400  149.2380 O   0  0  0  0  0  0  0  0  0  0  0  0
  147.8040  136.1510  148.1320 C   0  0  0  0  0  1  0  0  0  0  0  0
  148.9430  137.8400  153.0920 C   0  0  0  0  0  2  0  0  0  0  0  0
  148.5180  139.9500  154.2470 C   0  0  0  0  0  0  0  0  0  0  0  0
  148.1790  139.3710  155.2730 O   0  0  0  0  0  0  0  0  0  0  0  0
  148.8940  139.2820  153.1050 N   0  0  0  0  0  0  0  0  0  0  0  0
  149.1320  139.7880  152.2950 H   0  0  0  0  0  0  0  0  0  0  0  0
  148.5250  141.4600  154.1080 C   0  0  0  0  0  2  0  0  0  0  0  0
  147.1530  141.9760  153.6740 C   0  0  0  0  0  2  0  0  0  0  0  0
  147.0500  142.1410  152.1590 C   0  0  0  0  0  2  0  0  0  0  0  0
  145.5880  142.2880  151.7330 C   0  0  0  0  0  2  0  0  0  0  0  0
  144.9010  140.9340  151.5580 C   0  0  0  0  0  2  0  0  0  0  0  0
  144.8840  140.5210  150.0850 C   0  0  0  0  0  2  0  0  0  0  0  0
  146.5050  139.7420  148.3240 C   0  0  0  0  0  1  0  0  0  0  0  0
  146.0280  139.5630  149.7570 C   0  0  0  0  0  2  0  0  0  0  0  0
  144.6850  135.5500  150.0740 O   0  0  0  0  0  0  0  0  0  0  0  0
  143.8780  136.3900  149.2550 C   0  0  0  0  0  2  0  0  0  0  0  0
  142.4600  136.3740  149.8140 C   0  0  0  0  0  2  0  0  0  0  0  0
  142.1380  137.7000  150.4960 C   0  0  0  0  0  2  0  0  0  0  0  0
  141.7050  137.4970  151.9450 C   0  0  0  0  0  2  0  0  0  0  0  0
  140.2510  137.9280  152.1360 C   0  0  0  0  0  2  0  0  0  0  0  0
  140.0370  138.5600  153.5080 C   0  0  0  0  0  2  0  0  0  0  0  0
  139.1810  139.7330  153.3890 N   0  0  0  0  0  4  0  0  0  0  0  0
  139.3500  140.1860  152.4900 H   0  0  0  0  0  0  0  0  0  0  0  0
  139.3920  140.3860  154.1430 H   0  0  0  0  0  0  0  0  0  0  0  0
  138.2040  139.4490  153.4480 H   0  0  0  0  0  0  0  0  0  0  0  0
  1  2  1  0  0  0  0
  1  9  1  0  0  0  0
  3  2  2  0  0  0  0
  4  3  1  0  0  0  0
  5  4  2  0  0  0  0
  5  6  1  0  0  0  0
  6  1  2  0  0  0  0
  7  5  1  0  0  0  0
  8  7  1  0  0  0  0
  9 12  1  0  0  0  0
 10 11  2  0  0  0  0
 12 10  1  0  0  0  0
 13 12  1  0  0  0  0
 14 10  1  0  0  0  0
 15 14  1  0  0  0  0
 16 15  1  0  0  0  0
 17 16  1  0  0  0  0
 18 17  1  0  0  0  0
 19 18  1  0  0  0  0
 20 21  1  0  0  0  0
 21 19  1  0  0  0  0
 22  4  1  0  0  0  0
 23 24  1  0  0  0  0
 23 22  1  0  0  0  0
 24 25  1  0  0  0  0
 25 26  1  0  0  0  0
 26 27  1  0  0  0  0
 27 28  1  0  0  0  0
 29 32  1  0  0  0  0
 29 28  1  0  0  0  0
 29 31  1  0  0  0  0
 30 29  1  0  0  0  0
M  END
>  <MODEL>
1

>  <REMARK>
 VINA RESULT:    -6.523      0.000      0.000
 INTER + INTRA:         -14.561
 INTER:                 -11.989
 INTRA:                  -2.572
 UNBOUND:                -1.364
  Name = CHEMBL5281605
  20 active torsions:
  status: ('A' for Active; 'I' for Inactive)
    1  A    between atoms: C_1  and  C_2
    2  A    between atoms: C_2  and  C_3
    3  A    between atoms: C_3  and  C_4
    4  A    between atoms: C_4  and  C_5
    5  A    between atoms: C_5  and  C_6
    6  A    between atoms: C_6  and  C_7
    7  A    between atoms: C_7  and  C_8
    8  A    between atoms: C_8  and  C_9
    9  A    between atoms: N_11  and  C_12
   10  A    between atoms: C_12  and  C_13
   11  A    between atoms: C_16  and  O_17
   12  A    between atoms: O_17  and  C_18
   13  A    between atoms: C_18  and  C_19
   14  A    between atoms: C_19  and  C_20
   15  A    between atoms: C_20  and  C_21
   16  A    between atoms: C_21  and  C_22
   17  A    between atoms: C_22  and  C_23
   18  A    between atoms: C_23  and  N_24
   19  A    between atoms: C_25  and  O_26
   20  A    between atoms: O_26  and  C_27
                            x       y       z     vdW  Elec       q    Type
                         _______ _______ _______ _____ _____    ______ ____

>  <TORSDO>
F 18

>  <SCORE>
-6.523

>  <RMSD_LB>
0.000

>  <RMSD_UB>
0.000

$$$$
CHEMBL5281605
 OpenBabel10172500163D

 32 32  0  0  0  0  0  0  0  0999 V2000
  140.4920  137.8280  152.3740 C   0  0  0  0  0  0  0  0  0  0  0  0
  139.2460  137.5710  151.7980 C   0  0  0  0  0  3  0  0  0  0  0  0
  138.0870  137.5910  152.5760 C   0  0  0  0  0  3  0  0  0  0  0  0
  138.1420  137.8680  153.9480 C   0  0  0  0  0  0  0  0  0  0  0  0
  139.3930  138.1150  154.5380 C   0  0  0  0  0  0  0  0  0  0  0  0
  140.5480  138.1200  153.7430 C   0  0  0  0  0  3  0  0  0  0  0  0
  139.6370  138.4120  155.8560 O   0  0  0  0  0  0  0  0  0  0  0  0
  140.3750  137.4460  156.5990 C   0  0  0  0  0  1  0  0  0  0  0  0
  141.7430  137.7970  151.5420 C   0  0  0  0  0  2  0  0  0  0  0  0
  143.8160  138.6240  152.5350 C   0  0  0  0  0  0  0  0  0  0  0  0
  143.6770  139.7260  152.0160 O   0  0  0  0  0  0  0  0  0  0  0  0
  142.9230  137.5940  152.3460 N   0  0  0  0  0  0  0  0  0  0  0  0
  143.0900  136.7170  152.7600 H   0  0  0  0  0  0  0  0  0  0  0  0
  145.0000  138.2600  153.4100 C   0  0  0  0  0  2  0  0  0  0  0  0
  145.2910  139.3650  154.4250 C   0  0  0  0  0  2  0  0  0  0  0  0
  146.7880  139.6260  154.5830 C   0  0  0  0  0  2  0  0  0  0  0  0
  147.2700  140.6350  153.5390 C   0  0  0  0  0  2  0  0  0  0  0  0
  146.5690  141.9850  153.6800 C   0  0  0  0  0  2  0  0  0  0  0  0
  145.9670  142.4250  152.3440 C   0  0  0  0  0  2  0  0  0  0  0  0
  146.7950  142.7580  149.9900 C   0  0  0  0  0  1  0  0  0  0  0  0
  146.6990  141.7920  151.1620 C   0  0  0  0  0  2  0  0  0  0  0  0
  137.0340  137.9410  154.7490 O   0  0  0  0  0  0  0  0  0  0  0  0
  136.2630  136.7570  154.9250 C   0  0  0  0  0  2  0  0  0  0  0  0
  136.9650  135.8860  155.9610 C   0  0  0  0  0  2  0  0  0  0  0  0
  136.0110  135.5320  157.0980 C   0  0  0  0  0  2  0  0  0  0  0  0
  136.6860  135.6590  158.4590 C   0  0  0  0  0  2  0  0  0  0  0  0
  137.0900  137.1080  158.7260 C   0  0  0  0  0  2  0  0  0  0  0  0
  136.4450  137.6370  160.0040 C   0  0  0  0  0  2  0  0  0  0  0  0
  135.6530  138.8240  159.7080 N   0  0  0  0  0  4  0  0  0  0  0  0
  134.6720  138.5610  159.6060 H   0  0  0  0  0  0  0  0  0  0  0  0
  135.9840  139.2460  158.8420 H   0  0  0  0  0  0  0  0  0  0  0  0
  135.7470  139.4940  160.4710 H   0  0  0  0  0  0  0  0  0  0  0  0
  1  6  1  0  0  0  0
  2  1  2  0  0  0  0
  2  3  1  0  0  0  0
  3  4  2  0  0  0  0
  4  5  1  0  0  0  0
  4 22  1  0  0  0  0
  5  7  1  0  0  0  0
  6  5  2  0  0  0  0
  7  8  1  0  0  0  0
  9 12  1  0  0  0  0
  9  1  1  0  0  0  0
 10 14  1  0  0  0  0
 11 10  2  0  0  0  0
 12 10  1  0  0  0  0
 12 13  1  0  0  0  0
 14 15  1  0  0  0  0
 15 16  1  0  0  0  0
 17 18  1  0  0  0  0
 17 16  1  0  0  0  0
 19 18  1  0  0  0  0
 20 21  1  0  0  0  0
 21 19  1  0  0  0  0
 22 23  1  0  0  0  0
 23 24  1  0  0  0  0
 24 25  1  0  0  0  0
 25 26  1  0  0  0  0
 26 27  1  0  0  0  0
 27 28  1  0  0  0  0
 29 28  1  0  0  0  0
 29 32  1  0  0  0  0
 30 29  1  0  0  0  0
 31 29  1  0  0  0  0
M  END
>  <MODEL>
2

>  <REMARK>
 VINA RESULT:    -6.486      4.311      7.142
 INTER + INTRA:         -14.486
 INTER:                 -12.988
 INTRA:                  -1.498
 UNBOUND:                -1.364
  Name = CHEMBL5281605
  20 active torsions:
  status: ('A' for Active; 'I' for Inactive)
    1  A    between atoms: C_1  and  C_2
    2  A    between atoms: C_2  and  C_3
    3  A    between atoms: C_3  and  C_4
    4  A    between atoms: C_4  and  C_5
    5  A    between atoms: C_5  and  C_6
    6  A    between atoms: C_6  and  C_7
    7  A    between atoms: C_7  and  C_8
    8  A    between atoms: C_8  and  C_9
    9  A    between atoms: N_11  and  C_12
   10  A    between atoms: C_12  and  C_13
   11  A    between atoms: C_16  and  O_17
   12  A    between atoms: O_17  and  C_18
   13  A    between atoms: C_18  and  C_19
   14  A    between atoms: C_19  and  C_20
   15  A    between atoms: C_20  and  C_21
   16  A    between atoms: C_21  and  C_22
   17  A    between atoms: C_22  and  C_23
   18  A    between atoms: C_23  and  N_24
   19  A    between atoms: C_25  and  O_26
   20  A    between atoms: O_26  and  C_27
                            x       y       z     vdW  Elec       q    Type
                         _______ _______ _______ _____ _____    ______ ____

>  <TORSDO>
F 18

>  <SCORE>
-6.486

>  <RMSD_LB>
4.311

>  <RMSD_UB>
7.142

$$$$
CHEMBL5281605
 OpenBabel10172500163D

 32 32  0  0  0  0  0  0  0  0999 V2000
  140.6770  138.6730  154.2760 C   0  0  0  0  0  0  0  0  0  0  0  0
  140.7090  138.2380  152.9490 C   0  0  0  0  0  3  0  0  0  0  0  0
  139.5530  137.7550  152.3320 C   0  0  0  0  0  3  0  0  0  0  0  0
  138.3360  137.6930  153.0240 C   0  0  0  0  0  0  0  0  0  0  0  0
  138.2980  138.1180  154.3630 C   0  0  0  0  0  0  0  0  0  0  0  0
  139.4580  138.6270  154.9650 C   0  0  0  0  0  3  0  0  0  0  0  0
  137.2010  138.1390  155.1890 O   0  0  0  0  0  0  0  0  0  0  0  0
  137.4480  137.9620  156.5800 C   0  0  0  0  0  1  0  0  0  0  0  0
  141.9210  139.1830  154.9460 C   0  0  0  0  0  2  0  0  0  0  0  0
  144.2360  139.5020  154.2350 C   0  0  0  0  0  0  0  0  0  0  0  0
  144.6680  138.9900  155.2620 O   0  0  0  0  0  0  0  0  0  0  0  0
  142.8920  139.6620  153.9920 N   0  0  0  0  0  0  0  0  0  0  0  0
  142.5900  140.1040  153.1660 H   0  0  0  0  0  0  0  0  0  0  0  0
  145.1290  140.0470  153.1380 C   0  0  0  0  0  2  0  0  0  0  0  0
  146.2590  140.8950  153.7220 C   0  0  0  0  0  2  0  0  0  0  0  0
  146.2980  142.3000  153.1220 C   0  0  0  0  0  2  0  0  0  0  0  0
  146.9690  142.2770  151.7470 C   0  0  0  0  0  2  0  0  0  0  0  0
  145.9590  142.4440  150.6130 C   0  0  0  0  0  2  0  0  0  0  0  0
  146.6350  142.2540  149.2530 C   0  0  0  0  0  2  0  0  0  0  0  0
  145.0090  140.3330  149.2690 C   0  0  0  0  0  1  0  0  0  0  0  0
  146.2520  140.9200  148.6170 C   0  0  0  0  0  2  0  0  0  0  0  0
  137.1650  137.2680  152.4560 O   0  0  0  0  0  0  0  0  0  0  0  0
  137.2170  136.7680  151.1250 C   0  0  0  0  0  2  0  0  0  0  0  0
  135.9500  135.9580  150.8740 C   0  0  0  0  0  2  0  0  0  0  0  0
  136.0720  134.5680  151.4900 C   0  0  0  0  0  2  0  0  0  0  0  0
  134.7140  134.0200  151.9160 C   0  0  0  0  0  2  0  0  0  0  0  0
  134.5930  134.0100  153.4400 C   0  0  0  0  0  2  0  0  0  0  0  0
  134.0100  135.3220  153.9580 C   0  0  0  0  0  2  0  0  0  0  0  0
  135.0580  136.1220  154.5790 N   0  0  0  0  0  4  0  0  0  0  0  0
  135.4540  136.7580  153.8860 H   0  0  0  0  0  0  0  0  0  0  0  0
  135.7890  135.5070  154.9340 H   0  0  0  0  0  0  0  0  0  0  0  0
  134.6630  136.6610  155.3490 H   0  0  0  0  0  0  0  0  0  0  0  0
  1  9  1  0  0  0  0
  1  6  1  0  0  0  0
  2  1  2  0  0  0  0
  3  2  1  0  0  0  0
  3  4  2  0  0  0  0
  4  5  1  0  0  0  0
  5  6  2  0  0  0  0
  5  7  1  0  0  0  0
  7  8  1  0  0  0  0
 10 11  2  0  0  0  0
 12 10  1  0  0  0  0
 12  9  1  0  0  0  0
 13 12  1  0  0  0  0
 14 15  1  0  0  0  0
 14 10  1  0  0  0  0
 16 15  1  0  0  0  0
 17 16  1  0  0  0  0
 18 17  1  0  0  0  0
 19 18  1  0  0  0  0
 21 19  1  0  0  0  0
 21 20  1  0  0  0  0
 22  4  1  0  0  0  0
 23 22  1  0  0  0  0
 24 23  1  0  0  0  0
 24 25  1  0  0  0  0
 25 26  1  0  0  0  0
 26 27  1  0  0  0  0
 27 28  1  0  0  0  0
 28 29  1  0  0  0  0
 29 31  1  0  0  0  0
 29 32  1  0  0  0  0
 30 29  1  0  0  0  0
M  END
>  <MODEL>
3

>  <REMARK>
 VINA RESULT:    -6.470      4.144      6.707
 INTER + INTRA:         -14.453
 INTER:                 -12.735
 INTRA:                  -1.718
 UNBOUND:                -1.364
  Name = CHEMBL5281605
  20 active torsions:
  status: ('A' for Active; 'I' for Inactive)
    1  A    between atoms: C_1  and  C_2
    2  A    between atoms: C_2  and  C_3
    3  A    between atoms: C_3  and  C_4
    4  A    between atoms: C_4  and  C_5
    5  A    between atoms: C_5  and  C_6
    6  A    between atoms: C_6  and  C_7
    7  A    between atoms: C_7  and  C_8
    8  A    between atoms: C_8  and  C_9
    9  A    between atoms: N_11  and  C_12
   10  A    between atoms: C_12  and  C_13
   11  A    between atoms: C_16  and  O_17
   12  A    between atoms: O_17  and  C_18
   13  A    between atoms: C_18  and  C_19
   14  A    between atoms: C_19  and  C_20
   15  A    between atoms: C_20  and  C_21
   16  A    between atoms: C_21  and  C_22
   17  A    between atoms: C_22  and  C_23
   18  A    between atoms: C_23  and  N_24
   19  A    between atoms: C_25  and  O_26
   20  A    between atoms: O_26  and  C_27
                            x       y       z     vdW  Elec       q    Type
                         _______ _______ _______ _____ _____    ______ ____

>  <TORSDO>
F 18

>  <SCORE>
-6.470

>  <RMSD_LB>
4.144

>  <RMSD_UB>
6.707

$$$$
CHEMBL5281605
 OpenBabel10172500163D

 32 32  0  0  0  0  0  0  0  0999 V2000
  147.6830  137.5080  152.3670 C   0  0  0  0  0  0  0  0  0  0  0  0
  147.8090  136.5650  151.3440 C   0  0  0  0  0  3  0  0  0  0  0  0
  146.6750  136.0390  150.7200 C   0  0  0  0  0  3  0  0  0  0  0  0
  145.3880  136.4410  151.1010 C   0  0  0  0  0  0  0  0  0  0  0  0
  145.2530  137.3800  152.1380 C   0  0  0  0  0  0  0  0  0  0  0  0
  146.3980  137.9230  152.7390 C   0  0  0  0  0  3  0  0  0  0  0  0
  144.0810  137.8940  152.6350 O   0  0  0  0  0  0  0  0  0  0  0  0
  143.5800  137.3000  153.8280 C   0  0  0  0  0  1  0  0  0  0  0  0
  148.9000  138.0670  153.0470 C   0  0  0  0  0  2  0  0  0  0  0  0
  148.6180  140.2260  154.1560 C   0  0  0  0  0  0  0  0  0  0  0  0
  148.2910  139.6910  155.2100 O   0  0  0  0  0  0  0  0  0  0  0  0
  148.9200  139.5100  153.0210 N   0  0  0  0  0  0  0  0  0  0  0  0
  149.1510  139.9820  152.1880 H   0  0  0  0  0  0  0  0  0  0  0  0
  148.6910  141.7290  153.9730 C   0  0  0  0  0  2  0  0  0  0  0  0
  147.9450  142.1650  152.7120 C   0  0  0  0  0  2  0  0  0  0  0  0
  146.4290  142.1520  152.9040 C   0  0  0  0  0  2  0  0  0  0  0  0
  145.7210  142.5450  151.6060 C   0  0  0  0  0  2  0  0  0  0  0  0
  146.6720  142.5420  150.4100 C   0  0  0  0  0  2  0  0  0  0  0  0
  146.2810  141.4530  149.4090 C   0  0  0  0  0  2  0  0  0  0  0  0
  146.8070  139.0980  148.6920 C   0  0  0  0  0  1  0  0  0  0  0  0
  146.7710  140.0770  149.8560 C   0  0  0  0  0  2  0  0  0  0  0  0
  144.2460  135.9900  150.4970 O   0  0  0  0  0  0  0  0  0  0  0  0
  143.8680  136.5880  149.2620 C   0  0  0  0  0  2  0  0  0  0  0  0
  142.3560  136.4630  149.1180 C   0  0  0  0  0  2  0  0  0  0  0  0
  141.6530  137.6260  149.8110 C   0  0  0  0  0  2  0  0  0  0  0  0
  141.0120  137.1930  151.1260 C   0  0  0  0  0  2  0  0  0  0  0  0
  139.5340  137.5810  151.1560 C   0  0  0  0  0  2  0  0  0  0  0  0
  139.3590  139.0970  151.1240 C   0  0  0  0  0  2  0  0  0  0  0  0
  139.3410  139.6260  152.4820 N   0  0  0  0  0  4  0  0  0  0  0  0
  140.2980  139.7660  152.8040 H   0  0  0  0  0  0  0  0  0  0  0  0
  138.8680  138.9650  153.0970 H   0  0  0  0  0  0  0  0  0  0  0  0
  138.8440  140.5160  152.4930 H   0  0  0  0  0  0  0  0  0  0  0  0
  1  6  1  0  0  0  0
  1  9  1  0  0  0  0
  2  1  2  0  0  0  0
  3  4  2  0  0  0  0
  3  2  1  0  0  0  0
  4  5  1  0  0  0  0
  5  7  1  0  0  0  0
  5  6  2  0  0  0  0
  7  8  1  0  0  0  0
 10 11  2  0  0  0  0
 12  9  1  0  0  0  0
 12 10  1  0  0  0  0
 13 12  1  0  0  0  0
 14 10  1  0  0  0  0
 15 16  1  0  0  0  0
 15 14  1  0  0  0  0
 17 16  1  0  0  0  0
 18 17  1  0  0  0  0
 19 21  1  0  0  0  0
 19 18  1  0  0  0  0
 20 21  1  0  0  0  0
 22  4  1  0  0  0  0
 23 22  1  0  0  0  0
 24 23  1  0  0  0  0
 24 25  1  0  0  0  0
 25 26  1  0  0  0  0
 26 27  1  0  0  0  0
 28 27  1  0  0  0  0
 28 29  1  0  0  0  0
 29 32  1  0  0  0  0
 29 30  1  0  0  0  0
 29 31  1  0  0  0  0
M  END
>  <MODEL>
4

>  <REMARK>
 VINA RESULT:    -6.456      1.253      2.167
 INTER + INTRA:         -14.425
 INTER:                 -12.034
 INTRA:                  -2.391
 UNBOUND:                -1.364
  Name = CHEMBL5281605
  20 active torsions:
  status: ('A' for Active; 'I' for Inactive)
    1  A    between atoms: C_1  and  C_2
    2  A    between atoms: C_2  and  C_3
    3  A    between atoms: C_3  and  C_4
    4  A    between atoms: C_4  and  C_5
    5  A    between atoms: C_5  and  C_6
    6  A    between atoms: C_6  and  C_7
    7  A    between atoms: C_7  and  C_8
    8  A    between atoms: C_8  and  C_9
    9  A    between atoms: N_11  and  C_12
   10  A    between atoms: C_12  and  C_13
   11  A    between atoms: C_16  and  O_17
   12  A    between atoms: O_17  and  C_18
   13  A    between atoms: C_18  and  C_19
   14  A    between atoms: C_19  and  C_20
   15  A    between atoms: C_20  and  C_21
   16  A    between atoms: C_21  and  C_22
   17  A    between atoms: C_22  and  C_23
   18  A    between atoms: C_23  and  N_24
   19  A    between atoms: C_25  and  O_26
   20  A    between atoms: O_26  and  C_27
                            x       y       z     vdW  Elec       q    Type
                         _______ _______ _______ _____ _____    ______ ____

>  <TORSDO>
F 18

>  <SCORE>
-6.456

>  <RMSD_LB>
1.253

>  <RMSD_UB>
2.167

$$$$
CHEMBL5281605
 OpenBabel10172500163D

 32 32  0  0  0  0  0  0  0  0999 V2000
  142.0570  137.7770  153.0110 C   0  0  0  0  0  0  0  0  0  0  0  0
  141.7770  137.3330  151.7160 C   0  0  0  0  0  3  0  0  0  0  0  0
  140.4770  137.3980  151.2090 C   0  0  0  0  0  3  0  0  0  0  0  0
  139.4250  137.9070  151.9810 C   0  0  0  0  0  0  0  0  0  0  0  0
  139.6960  138.3450  153.2880 C   0  0  0  0  0  0  0  0  0  0  0  0
  141.0090  138.3010  153.7790 C   0  0  0  0  0  3  0  0  0  0  0  0
  138.7990  138.8790  154.1800 O   0  0  0  0  0  0  0  0  0  0  0  0
  138.5420  138.1180  155.3570 C   0  0  0  0  0  1  0  0  0  0  0  0
  143.4520  137.6980  153.5630 C   0  0  0  0  0  2  0  0  0  0  0  0
  145.3700  139.1140  154.0940 C   0  0  0  0  0  0  0  0  0  0  0  0
  145.9920  138.1690  154.5680 O   0  0  0  0  0  0  0  0  0  0  0  0
  144.0970  138.9890  153.5890 N   0  0  0  0  0  0  0  0  0  0  0  0
  143.6250  139.7800  153.2440 H   0  0  0  0  0  0  0  0  0  0  0  0
  145.9160  140.5280  154.0450 C   0  0  0  0  0  2  0  0  0  0  0  0
  147.4160  140.5470  154.3390 C   0  0  0  0  0  2  0  0  0  0  0  0
  148.0500  141.9000  154.0220 C   0  0  0  0  0  2  0  0  0  0  0  0
  149.3290  141.7140  153.2030 C   0  0  0  0  0  2  0  0  0  0  0  0
  149.1660  142.2030  151.7640 C   0  0  0  0  0  2  0  0  0  0  0  0
  147.9550  141.5420  151.1020 C   0  0  0  0  0  2  0  0  0  0  0  0
  145.6400  142.4840  150.8040 C   0  0  0  0  0  1  0  0  0  0  0  0
  147.0940  142.5630  150.3610 C   0  0  0  0  0  2  0  0  0  0  0  0
  138.1420  138.0320  151.5200 O   0  0  0  0  0  0  0  0  0  0  0  0
  137.6920  137.0960  150.5470 C   0  0  0  0  0  2  0  0  0  0  0  0
  136.7820  136.0910  151.2430 C   0  0  0  0  0  2  0  0  0  0  0  0
  136.5640  136.4850  152.7010 C   0  0  0  0  0  2  0  0  0  0  0  0
  136.0290  135.3180  153.5250 C   0  0  0  0  0  2  0  0  0  0  0  0
  134.7860  135.7390  154.3080 C   0  0  0  0  0  2  0  0  0  0  0  0
  133.5770  134.8900  153.9250 C   0  0  0  0  0  2  0  0  0  0  0  0
  133.9070  134.0340  152.7930 N   0  0  0  0  0  4  0  0  0  0  0  0
  133.4120  133.1470  152.8820 H   0  0  0  0  0  0  0  0  0  0  0  0
  134.9120  133.8630  152.7780 H   0  0  0  0  0  0  0  0  0  0  0  0
  133.6270  134.4930  151.9260 H   0  0  0  0  0  0  0  0  0  0  0  0
  1  9  1  0  0  0  0
  1  6  1  0  0  0  0
  2  1  2  0  0  0  0
  3  2  1  0  0  0  0
  3  4  2  0  0  0  0
  4  5  1  0  0  0  0
  5  6  2  0  0  0  0
  5  7  1  0  0  0  0
  7  8  1  0  0  0  0
  9 12  1  0  0  0  0
 10 11  2  0  0  0  0
 12 10  1  0  0  0  0
 13 12  1  0  0  0  0
 14 10  1  0  0  0  0
 14 15  1  0  0  0  0
 16 15  1  0  0  0  0
 17 16  1  0  0  0  0
 18 17  1  0  0  0  0
 19 18  1  0  0  0  0
 21 20  1  0  0  0  0
 21 19  1  0  0  0  0
 22  4  1  0  0  0  0
 23 24  1  0  0  0  0
 23 22  1  0  0  0  0
 24 25  1  0  0  0  0
 25 26  1  0  0  0  0
 26 27  1  0  0  0  0
 28 27  1  0  0  0  0
 29 30  1  0  0  0  0
 29 28  1  0  0  0  0
 31 29  1  0  0  0  0
 32 29  1  0  0  0  0
M  END
>  <MODEL>
5

>  <REMARK>
 VINA RESULT:    -6.323      3.804      6.045
 INTER + INTRA:         -14.155
 INTER:                 -13.015
 INTRA:                  -1.139
 UNBOUND:                -1.364
  Name = CHEMBL5281605
  20 active torsions:
  status: ('A' for Active; 'I' for Inactive)
    1  A    between atoms: C_1  and  C_2
    2  A    between atoms: C_2  and  C_3
    3  A    between atoms: C_3  and  C_4
    4  A    between atoms: C_4  and  C_5
    5  A    between atoms: C_5  and  C_6
    6  A    between atoms: C_6  and  C_7
    7  A    between atoms: C_7  and  C_8
    8  A    between atoms: C_8  and  C_9
    9  A    between atoms: N_11  and  C_12
   10  A    between atoms: C_12  and  C_13
   11  A    between atoms: C_16  and  O_17
   12  A    between atoms: O_17  and  C_18
   13  A    between atoms: C_18  and  C_19
   14  A    between atoms: C_19  and  C_20
   15  A    between atoms: C_20  and  C_21
   16  A    between atoms: C_21  and  C_22
   17  A    between atoms: C_22  and  C_23
   18  A    between atoms: C_23  and  N_24
   19  A    between atoms: C_25  and  O_26
   20  A    between atoms: O_26  and  C_27
                            x       y       z     vdW  Elec       q    Type
                         _______ _______ _______ _____ _____    ______ ____

>  <TORSDO>
F 18

>  <SCORE>
-6.323

>  <RMSD_LB>
3.804

>  <RMSD_UB>
6.045

$$$$
CHEMBL5281605
 OpenBabel10172500163D

 32 32  0  0  0  0  0  0  0  0999 V2000
  141.7790  137.7560  152.2980 C   0  0  0  0  0  0  0  0  0  0  0  0
  140.4410  137.6710  151.9050 C   0  0  0  0  0  3  0  0  0  0  0  0
  139.4210  138.0650  152.7740 C   0  0  0  0  0  3  0  0  0  0  0  0
  139.7100  138.5530  154.0550 C   0  0  0  0  0  0  0  0  0  0  0  0
  141.0530  138.6300  154.4610 C   0  0  0  0  0  0  0  0  0  0  0  0
  142.0720  138.2580  153.5720 C   0  0  0  0  0  3  0  0  0  0  0  0
  141.5230  139.0890  155.6670 O   0  0  0  0  0  0  0  0  0  0  0  0
  142.8060  139.7070  155.6570 C   0  0  0  0  0  1  0  0  0  0  0  0
  142.8780  137.3220  151.3700 C   0  0  0  0  0  2  0  0  0  0  0  0
  144.3770  139.1310  150.6970 C   0  0  0  0  0  0  0  0  0  0  0  0
  145.0710  138.9870  151.6980 O   0  0  0  0  0  0  0  0  0  0  0  0
  143.2570  138.3700  150.4530 N   0  0  0  0  0  0  0  0  0  0  0  0
  142.7140  138.5390  149.6500 H   0  0  0  0  0  0  0  0  0  0  0  0
  144.6490  140.1840  149.6410 C   0  0  0  0  0  2  0  0  0  0  0  0
  146.1330  140.5470  149.6000 C   0  0  0  0  0  2  0  0  0  0  0  0
  146.3730  142.0300  149.8810 C   0  0  0  0  0  2  0  0  0  0  0  0
  147.0370  142.2160  151.2470 C   0  0  0  0  0  2  0  0  0  0  0  0
  146.0100  142.4280  152.3590 C   0  0  0  0  0  2  0  0  0  0  0  0
  146.3910  141.6290  153.6070 C   0  0  0  0  0  2  0  0  0  0  0  0
  148.6110  140.6040  154.2080 C   0  0  0  0  0  1  0  0  0  0  0  0
  147.8340  141.9010  154.0290 C   0  0  0  0  0  2  0  0  0  0  0  0
  138.7530  138.9920  154.9300 O   0  0  0  0  0  0  0  0  0  0  0  0
  137.5870  138.1920  155.0940 C   0  0  0  0  0  2  0  0  0  0  0  0
  137.9270  137.0510  156.0460 C   0  0  0  0  0  2  0  0  0  0  0  0
  136.6590  136.4810  156.6740 C   0  0  0  0  0  2  0  0  0  0  0  0
  136.9730  135.6100  157.8860 C   0  0  0  0  0  2  0  0  0  0  0  0
  135.6890  135.2320  158.6230 C   0  0  0  0  0  2  0  0  0  0  0  0
  135.6230  135.8950  159.9960 C   0  0  0  0  0  2  0  0  0  0  0  0
  136.7330  136.8270  160.1530 N   0  0  0  0  0  4  0  0  0  0  0  0
  137.5280  136.3400  160.5670 H   0  0  0  0  0  0  0  0  0  0  0  0
  136.4490  137.5930  160.7620 H   0  0  0  0  0  0  0  0  0  0  0  0
  136.9980  137.1970  159.2410 H   0  0  0  0  0  0  0  0  0  0  0  0
  1  6  1  0  0  0  0
  2  1  2  0  0  0  0
  2  3  1  0  0  0  0
  3  4  2  0  0  0  0
  4  5  1  0  0  0  0
  4 22  1  0  0  0  0
  5  7  1  0  0  0  0
  6  5  2  0  0  0  0
  8  7  1  0  0  0  0
  9  1  1  0  0  0  0
 10 11  2  0  0  0  0
 12 10  1  0  0  0  0
 12  9  1  0  0  0  0
 13 12  1  0  0  0  0
 14 10  1  0  0  0  0
 15 14  1  0  0  0  0
 15 16  1  0  0  0  0
 16 17  1  0  0  0  0
 17 18  1  0  0  0  0
 18 19  1  0  0  0  0
 19 21  1  0  0  0  0
 21 20  1  0  0  0  0
 22 23  1  0  0  0  0
 23 24  1  0  0  0  0
 24 25  1  0  0  0  0
 25 26  1  0  0  0  0
 26 27  1  0  0  0  0
 27 28  1  0  0  0  0
 28 29  1  0  0  0  0
 29 30  1  0  0  0  0
 29 31  1  0  0  0  0
 32 29  1  0  0  0  0
M  END
>  <MODEL>
6

>  <REMARK>
 VINA RESULT:    -6.309      4.054      6.744
 INTER + INTRA:         -14.127
 INTER:                 -12.697
 INTRA:                  -1.430
 UNBOUND:                -1.364
  Name = CHEMBL5281605
  20 active torsions:
  status: ('A' for Active; 'I' for Inactive)
    1  A    between atoms: C_1  and  C_2
    2  A    between atoms: C_2  and  C_3
    3  A    between atoms: C_3  and  C_4
    4  A    between atoms: C_4  and  C_5
    5  A    between atoms: C_5  and  C_6
    6  A    between atoms: C_6  and  C_7
    7  A    between atoms: C_7  and  C_8
    8  A    between atoms: C_8  and  C_9
    9  A    between atoms: N_11  and  C_12
   10  A    between atoms: C_12  and  C_13
   11  A    between atoms: C_16  and  O_17
   12  A    between atoms: O_17  and  C_18
   13  A    between atoms: C_18  and  C_19
   14  A    between atoms: C_19  and  C_20
   15  A    between atoms: C_20  and  C_21
   16  A    between atoms: C_21  and  C_22
   17  A    between atoms: C_22  and  C_23
   18  A    between atoms: C_23  and  N_24
   19  A    between atoms: C_25  and  O_26
   20  A    between atoms: O_26  and  C_27
                            x       y       z     vdW  Elec       q    Type
                         _______ _______ _______ _____ _____    ______ ____

>  <TORSDO>
F 18

>  <SCORE>
-6.309

>  <RMSD_LB>
4.054

>  <RMSD_UB>
6.744

$$$$
CHEMBL5281605
 OpenBabel10172500163D

 32 32  0  0  0  0  0  0  0  0999 V2000
  140.1280  138.0420  153.3190 C   0  0  0  0  0  0  0  0  0  0  0  0
  141.0030  138.2230  154.3920 C   0  0  0  0  0  3  0  0  0  0  0  0
  142.3690  137.9710  154.2440 C   0  0  0  0  0  3  0  0  0  0  0  0
  142.8950  137.5320  153.0220 C   0  0  0  0  0  0  0  0  0  0  0  0
  142.0180  137.3350  151.9410 C   0  0  0  0  0  0  0  0  0  0  0  0
  140.6530  137.6170  152.0920 C   0  0  0  0  0  3  0  0  0  0  0  0
  142.3530  136.9210  150.6750 O   0  0  0  0  0  0  0  0  0  0  0  0
  141.9970  137.7910  149.6060 C   0  0  0  0  0  1  0  0  0  0  0  0
  138.6570  138.3020  153.4780 C   0  0  0  0  0  2  0  0  0  0  0  0
  137.2390  137.9610  155.4380 C   0  0  0  0  0  0  0  0  0  0  0  0
  137.0110  139.1620  155.5370 O   0  0  0  0  0  0  0  0  0  0  0  0
  138.0580  137.4360  154.4650 N   0  0  0  0  0  0  0  0  0  0  0  0
  138.2350  136.4680  154.4410 H   0  0  0  0  0  0  0  0  0  0  0  0
  136.6780  136.9270  156.3950 C   0  0  0  0  0  2  0  0  0  0  0  0
  136.3880  135.6110  155.6720 C   0  0  0  0  0  2  0  0  0  0  0  0
  134.8920  135.3100  155.5980 C   0  0  0  0  0  2  0  0  0  0  0  0
  134.3990  135.3930  154.1520 C   0  0  0  0  0  2  0  0  0  0  0  0
  134.5770  134.0700  153.4080 C   0  0  0  0  0  2  0  0  0  0  0  0
  135.8020  134.1230  152.4930 C   0  0  0  0  0  2  0  0  0  0  0  0
  136.5240  136.1990  151.2680 C   0  0  0  0  0  1  0  0  0  0  0  0
  135.5610  135.0220  151.2820 C   0  0  0  0  0  2  0  0  0  0  0  0
  144.2290  137.3100  152.8090 O   0  0  0  0  0  0  0  0  0  0  0  0
  145.0010  136.8150  153.8980 C   0  0  0  0  0  2  0  0  0  0  0  0
  146.4700  137.0890  153.5990 C   0  0  0  0  0  2  0  0  0  0  0  0
  146.9750  138.2670  154.4270 C   0  0  0  0  0  2  0  0  0  0  0  0
  147.6210  139.3350  153.5500 C   0  0  0  0  0  2  0  0  0  0  0  0
  147.9900  140.5630  154.3820 C   0  0  0  0  0  2  0  0  0  0  0  0
  147.2600  141.8080  153.8850 C   0  0  0  0  0  2  0  0  0  0  0  0
  145.8750  141.7870  154.3360 N   0  0  0  0  0  4  0  0  0  0  0  0
  145.4600  140.8810  154.1180 H   0  0  0  0  0  0  0  0  0  0  0  0
  145.3530  142.5230  153.8620 H   0  0  0  0  0  0  0  0  0  0  0  0
  145.8430  141.9420  155.3440 H   0  0  0  0  0  0  0  0  0  0  0  0
  1  9  1  0  0  0  0
  1  2  1  0  0  0  0
  3  2  2  0  0  0  0
  4  3  1  0  0  0  0
  5  6  1  0  0  0  0
  5  4  2  0  0  0  0
  6  1  2  0  0  0  0
  7  5  1  0  0  0  0
  8  7  1  0  0  0  0
  9 12  1  0  0  0  0
 10 11  2  0  0  0  0
 10 14  1  0  0  0  0
 12 10  1  0  0  0  0
 13 12  1  0  0  0  0
 15 14  1  0  0  0  0
 16 15  1  0  0  0  0
 17 16  1  0  0  0  0
 18 17  1  0  0  0  0
 19 18  1  0  0  0  0
 20 21  1  0  0  0  0
 21 19  1  0  0  0  0
 22  4  1  0  0  0  0
 22 23  1  0  0  0  0
 24 23  1  0  0  0  0
 24 25  1  0  0  0  0
 26 27  1  0  0  0  0
 26 25  1  0  0  0  0
 28 29  1  0  0  0  0
 28 27  1  0  0  0  0
 29 32  1  0  0  0  0
 30 29  1  0  0  0  0
 31 29  1  0  0  0  0
M  END
>  <MODEL>
7

>  <REMARK>
 VINA RESULT:    -6.286      3.991      9.153
 INTER + INTRA:         -14.081
 INTER:                 -12.695
 INTRA:                  -1.386
 UNBOUND:                -1.364
  Name = CHEMBL5281605
  20 active torsions:
  status: ('A' for Active; 'I' for Inactive)
    1  A    between atoms: C_1  and  C_2
    2  A    between atoms: C_2  and  C_3
    3  A    between atoms: C_3  and  C_4
    4  A    between atoms: C_4  and  C_5
    5  A    between atoms: C_5  and  C_6
    6  A    between atoms: C_6  and  C_7
    7  A    between atoms: C_7  and  C_8
    8  A    between atoms: C_8  and  C_9
    9  A    between atoms: N_11  and  C_12
   10  A    between atoms: C_12  and  C_13
   11  A    between atoms: C_16  and  O_17
   12  A    between atoms: O_17  and  C_18
   13  A    between atoms: C_18  and  C_19
   14  A    between atoms: C_19  and  C_20
   15  A    between atoms: C_20  and  C_21
   16  A    between atoms: C_21  and  C_22
   17  A    between atoms: C_22  and  C_23
   18  A    between atoms: C_23  and  N_24
   19  A    between atoms: C_25  and  O_26
   20  A    between atoms: O_26  and  C_27
                            x       y       z     vdW  Elec       q    Type
                         _______ _______ _______ _____ _____    ______ ____

>  <TORSDO>
F 18

>  <SCORE>
-6.286

>  <RMSD_LB>
3.991

>  <RMSD_UB>
9.153

$$$$
CHEMBL5281605
 OpenBabel10172500163D

 32 32  0  0  0  0  0  0  0  0999 V2000
  139.8600  137.7470  151.5780 C   0  0  0  0  0  0  0  0  0  0  0  0
  140.8940  137.3700  150.7180 C   0  0  0  0  0  3  0  0  0  0  0  0
  142.2200  137.3770  151.1580 C   0  0  0  0  0  3  0  0  0  0  0  0
  142.5460  137.7600  152.4650 C   0  0  0  0  0  0  0  0  0  0  0  0
  141.5120  138.1520  153.3320 C   0  0  0  0  0  0  0  0  0  0  0  0
  140.1810  138.1160  152.8900 C   0  0  0  0  0  3  0  0  0  0  0  0
  141.6400  138.5470  154.6410 O   0  0  0  0  0  0  0  0  0  0  0  0
  140.6720  138.0430  155.5560 C   0  0  0  0  0  1  0  0  0  0  0  0
  138.4340  137.7510  151.1040 C   0  0  0  0  0  2  0  0  0  0  0  0
  136.7120  136.1860  151.8490 C   0  0  0  0  0  0  0  0  0  0  0  0
  136.6880  135.6250  150.7590 O   0  0  0  0  0  0  0  0  0  0  0  0
  137.5270  137.2620  152.1140 N   0  0  0  0  0  0  0  0  0  0  0  0
  137.4920  137.7000  152.9950 H   0  0  0  0  0  0  0  0  0  0  0  0
  135.8230  135.7850  153.0100 C   0  0  0  0  0  2  0  0  0  0  0  0
  135.4140  134.3160  152.9060 C   0  0  0  0  0  2  0  0  0  0  0  0
  133.9420  134.1500  152.5330 C   0  0  0  0  0  2  0  0  0  0  0  0
  133.8080  133.5750  151.1210 C   0  0  0  0  0  2  0  0  0  0  0  0
  132.7550  134.3160  150.2980 C   0  0  0  0  0  2  0  0  0  0  0  0
  132.8500  135.8260  150.5270 C   0  0  0  0  0  2  0  0  0  0  0  0
  132.5710  136.9950  148.3160 C   0  0  0  0  0  1  0  0  0  0  0  0
  133.5620  136.5260  149.3710 C   0  0  0  0  0  2  0  0  0  0  0  0
  143.8220  137.7460  152.9610 O   0  0  0  0  0  0  0  0  0  0  0  0
  144.8330  138.4060  152.2080 C   0  0  0  0  0  2  0  0  0  0  0  0
  144.7420  139.8990  152.5020 C   0  0  0  0  0  2  0  0  0  0  0  0
  146.1220  140.5460  152.4290 C   0  0  0  0  0  2  0  0  0  0  0  0
  146.0310  142.0680  152.4380 C   0  0  0  0  0  2  0  0  0  0  0  0
  145.5490  142.5860  151.0830 C   0  0  0  0  0  2  0  0  0  0  0  0
  146.6810  142.5960  150.0600 C   0  0  0  0  0  2  0  0  0  0  0  0
  146.2490  141.9400  148.8320 N   0  0  0  0  0  4  0  0  0  0  0  0
  146.8370  142.2480  148.0580 H   0  0  0  0  0  0  0  0  0  0  0  0
  145.2780  142.1850  148.6400 H   0  0  0  0  0  0  0  0  0  0  0  0
  146.3300  140.9290  148.9400 H   0  0  0  0  0  0  0  0  0  0  0  0
  1  6  1  0  0  0  0
  2  3  1  0  0  0  0
  2  1  2  0  0  0  0
  3  4  2  0  0  0  0
  4 22  1  0  0  0  0
  4  5  1  0  0  0  0
  5  7  1  0  0  0  0
  6  5  2  0  0  0  0
  7  8  1  0  0  0  0
  9  1  1  0  0  0  0
  9 12  1  0  0  0  0
 10 12  1  0  0  0  0
 10 14  1  0  0  0  0
 11 10  2  0  0  0  0
 12 13  1  0  0  0  0
 15 14  1  0  0  0  0
 16 15  1  0  0  0  0
 17 16  1  0  0  0  0
 18 19  1  0  0  0  0
 18 17  1  0  0  0  0
 20 21  1  0  0  0  0
 21 19  1  0  0  0  0
 23 24  1  0  0  0  0
 23 22  1  0  0  0  0
 25 26  1  0  0  0  0
 25 24  1  0  0  0  0
 27 26  1  0  0  0  0
 28 27  1  0  0  0  0
 29 32  1  0  0  0  0
 29 28  1  0  0  0  0
 30 29  1  0  0  0  0
 31 29  1  0  0  0  0
M  END
>  <MODEL>
8

>  <REMARK>
 VINA RESULT:    -6.283      4.801     10.145
 INTER + INTRA:         -14.075
 INTER:                 -12.615
 INTRA:                  -1.460
 UNBOUND:                -1.364
  Name = CHEMBL5281605
  20 active torsions:
  status: ('A' for Active; 'I' for Inactive)
    1  A    between atoms: C_1  and  C_2
    2  A    between atoms: C_2  and  C_3
    3  A    between atoms: C_3  and  C_4
    4  A    between atoms: C_4  and  C_5
    5  A    between atoms: C_5  and  C_6
    6  A    between atoms: C_6  and  C_7
    7  A    between atoms: C_7  and  C_8
    8  A    between atoms: C_8  and  C_9
    9  A    between atoms: N_11  and  C_12
   10  A    between atoms: C_12  and  C_13
   11  A    between atoms: C_16  and  O_17
   12  A    between atoms: O_17  and  C_18
   13  A    between atoms: C_18  and  C_19
   14  A    between atoms: C_19  and  C_20
   15  A    between atoms: C_20  and  C_21
   16  A    between atoms: C_21  and  C_22
   17  A    between atoms: C_22  and  C_23
   18  A    between atoms: C_23  and  N_24
   19  A    between atoms: C_25  and  O_26
   20  A    between atoms: O_26  and  C_27
                            x       y       z     vdW  Elec       q    Type
                         _______ _______ _______ _____ _____    ______ ____

>  <TORSDO>
F 18

>  <SCORE>
-6.283

>  <RMSD_LB>
4.801

>  <RMSD_UB>
10.145

$$$$
CHEMBL5281605
 OpenBabel10172500163D

 32 32  0  0  0  0  0  0  0  0999 V2000
  141.3300  137.6100  151.9860 C   0  0  0  0  0  0  0  0  0  0  0  0
  139.9900  137.4850  151.6090 C   0  0  0  0  0  3  0  0  0  0  0  0
  138.9720  137.9330  152.4530 C   0  0  0  0  0  3  0  0  0  0  0  0
  139.2640  138.5160  153.6940 C   0  0  0  0  0  0  0  0  0  0  0  0
  140.6080  138.6340  154.0850 C   0  0  0  0  0  0  0  0  0  0  0  0
  141.6250  138.2060  153.2190 C   0  0  0  0  0  3  0  0  0  0  0  0
  141.0810  139.1830  155.2510 O   0  0  0  0  0  0  0  0  0  0  0  0
  142.4660  139.5100  155.2850 C   0  0  0  0  0  1  0  0  0  0  0  0
  142.4280  137.1200  151.0850 C   0  0  0  0  0  2  0  0  0  0  0  0
  144.7220  137.9410  151.2500 C   0  0  0  0  0  0  0  0  0  0  0  0
  144.5950  138.6290  150.2430 O   0  0  0  0  0  0  0  0  0  0  0  0
  143.7140  137.1420  151.7380 N   0  0  0  0  0  0  0  0  0  0  0  0
  143.8700  136.5850  152.5340 H   0  0  0  0  0  0  0  0  0  0  0  0
  146.0100  137.8640  152.0470 C   0  0  0  0  0  2  0  0  0  0  0  0
  145.8100  137.0650  153.3350 C   0  0  0  0  0  2  0  0  0  0  0  0
  146.3970  137.7750  154.5540 C   0  0  0  0  0  2  0  0  0  0  0  0
  147.8540  138.1630  154.2990 C   0  0  0  0  0  2  0  0  0  0  0  0
  148.2230  139.4850  154.9720 C   0  0  0  0  0  2  0  0  0  0  0  0
  148.5600  140.5500  153.9260 C   0  0  0  0  0  2  0  0  0  0  0  0
  146.4290  141.8120  153.4740 C   0  0  0  0  0  1  0  0  0  0  0  0
  147.7820  141.8420  154.1700 C   0  0  0  0  0  2  0  0  0  0  0  0
  138.3080  139.0090  154.5410 O   0  0  0  0  0  0  0  0  0  0  0  0
  137.8590  138.1670  155.5960 C   0  0  0  0  0  2  0  0  0  0  0  0
  136.9740  137.0820  154.9920 C   0  0  0  0  0  2  0  0  0  0  0  0
  136.7030  135.9810  156.0130 C   0  0  0  0  0  2  0  0  0  0  0  0
  135.3770  135.2770  155.7420 C   0  0  0  0  0  2  0  0  0  0  0  0
  134.9260  135.5170  154.3020 C   0  0  0  0  0  2  0  0  0  0  0  0
  135.0600  134.2500  153.4620 C   0  0  0  0  0  2  0  0  0  0  0  0
  133.7720  133.9010  152.8770 N   0  0  0  0  0  4  0  0  0  0  0  0
  133.5740  132.9160  153.0570 H   0  0  0  0  0  0  0  0  0  0  0  0
  133.8010  134.0630  151.8710 H   0  0  0  0  0  0  0  0  0  0  0  0
  133.0420  134.4770  153.2950 H   0  0  0  0  0  0  0  0  0  0  0  0
  1  6  1  0  0  0  0
  2  1  2  0  0  0  0
  2  3  1  0  0  0  0
  3  4  2  0  0  0  0
  4  5  1  0  0  0  0
  4 22  1  0  0  0  0
  5  7  1  0  0  0  0
  6  5  2  0  0  0  0
  7  8  1  0  0  0  0
  9 12  1  0  0  0  0
  9  1  1  0  0  0  0
 10 12  1  0  0  0  0
 10 14  1  0  0  0  0
 11 10  2  0  0  0  0
 12 13  1  0  0  0  0
 14 15  1  0  0  0  0
 15 16  1  0  0  0  0
 17 16  1  0  0  0  0
 17 18  1  0  0  0  0
 19 21  1  0  0  0  0
 19 18  1  0  0  0  0
 20 21  1  0  0  0  0
 22 23  1  0  0  0  0
 24 23  1  0  0  0  0
 24 25  1  0  0  0  0
 26 25  1  0  0  0  0
 27 26  1  0  0  0  0
 28 27  1  0  0  0  0
 29 30  1  0  0  0  0
 29 32  1  0  0  0  0
 29 28  1  0  0  0  0
 31 29  1  0  0  0  0
M  END
>  <MODEL>
9

>  <REMARK>
 VINA RESULT:    -6.163      3.865      6.854
 INTER + INTRA:         -13.832
 INTER:                 -12.468
 INTRA:                  -1.364
 UNBOUND:                -1.364
  Name = CHEMBL5281605
  20 active torsions:
  status: ('A' for Active; 'I' for Inactive)
    1  A    between atoms: C_1  and  C_2
    2  A    between atoms: C_2  and  C_3
    3  A    between atoms: C_3  and  C_4
    4  A    between atoms: C_4  and  C_5
    5  A    between atoms: C_5  and  C_6
    6  A    between atoms: C_6  and  C_7
    7  A    between atoms: C_7  and  C_8
    8  A    between atoms: C_8  and  C_9
    9  A    between atoms: N_11  and  C_12
   10  A    between atoms: C_12  and  C_13
   11  A    between atoms: C_16  and  O_17
   12  A    between atoms: O_17  and  C_18
   13  A    between atoms: C_18  and  C_19
   14  A    between atoms: C_19  and  C_20
   15  A    between atoms: C_20  and  C_21
   16  A    between atoms: C_21  and  C_22
   17  A    between atoms: C_22  and  C_23
   18  A    between atoms: C_23  and  N_24
   19  A    between atoms: C_25  and  O_26
   20  A    between atoms: O_26  and  C_27
                            x       y       z     vdW  Elec       q    Type
                         _______ _______ _______ _____ _____    ______ ____

>  <TORSDO>
F 18

>  <SCORE>
-6.163

>  <RMSD_LB>
3.865

>  <RMSD_UB>
6.854

$$$$
