CHEMBL4449494
 OpenBabel10172500253D

 27 28  0  0  0  0  0  0  0  0999 V2000
  138.9640  138.7880  154.5610 C   0  0  0  0  0  0  0  0  0  0  0  0
  138.8800  139.8950  154.0440 O   0  0  0  0  0  0  0  0  0  0  0  0
  140.1460  138.1680  154.8790 N   0  0  0  0  0  0  0  0  0  0  0  0
  140.1260  137.2850  155.3150 H   0  0  0  0  0  0  0  0  0  0  0  0
  137.8320  137.0350  155.8500 C   0  0  0  0  0  3  0  0  0  0  0  0
  137.7650  137.9770  154.8930 C   0  0  0  0  0  3  0  0  0  0  0  0
  135.3540  135.1320  157.9970 C   0  0  0  0  0  0  0  0  0  0  0  0
  136.4270  135.9400  157.6230 C   0  0  0  0  0  3  0  0  0  0  0  0
  136.6890  136.2070  156.2730 C   0  0  0  0  0  0  0  0  0  0  0  0
  135.8240  135.6860  155.2990 C   0  0  0  0  0  3  0  0  0  0  0  0
  134.7540  134.8660  155.6600 C   0  0  0  0  0  0  0  0  0  0  0  0
  134.5210  134.6000  157.0130 C   0  0  0  0  0  3  0  0  0  0  0  0
  134.0500  135.5840  159.9320 C   0  0  0  0  0  1  0  0  0  0  0  0
  135.0360  134.7870  159.2880 O   0  0  0  0  0  0  0  0  0  0  0  0
  133.8850  134.2530  154.7970 O   0  0  0  0  0  0  0  0  0  0  0  0
  133.8910  134.7030  153.4480 C   0  0  0  0  0  1  0  0  0  0  0  0
  141.4240  138.7860  154.5870 C   0  0  0  0  0  2  0  0  0  0  0  0
  142.1100  138.1110  153.4280 C   0  0  0  0  0  0  0  0  0  0  0  0
  141.3710  137.7490  152.2960 C   0  0  0  0  0  3  0  0  0  0  0  0
  141.9940  137.1450  151.2030 C   0  0  0  0  0  3  0  0  0  0  0  0
  143.3720  136.9170  151.2170 C   0  0  0  0  0  0  0  0  0  0  0  0
  144.1370  137.2920  152.3270 C   0  0  0  0  0  0  0  0  0  0  0  0
  143.4920  137.8620  153.4370 C   0  0  0  0  0  3  0  0  0  0  0  0
  143.9420  136.3100  150.1330 O   0  0  0  0  0  0  0  0  0  0  0  0
  143.7370  136.6060  149.2680 H   0  0  0  0  0  0  0  0  0  0  0  0
  145.4880  137.1320  152.4920 O   0  0  0  0  0  0  0  0  0  0  0  0
  145.9020  136.4770  153.6870 C   0  0  0  0  0  1  0  0  0  0  0  0
  1  3  1  0  0  0  0
  1  6  1  0  0  0  0
  2  1  2  0  0  0  0
  3  4  1  0  0  0  0
  5  9  1  0  0  0  0
  6  5  2  0  0  0  0
  7 14  1  0  0  0  0
  8  7  1  0  0  0  0
  9  8  2  0  0  0  0
 10 11  2  0  0  0  0
 10  9  1  0  0  0  0
 11 12  1  0  0  0  0
 12  7  2  0  0  0  0
 14 13  1  0  0  0  0
 15 11  1  0  0  0  0
 16 15  1  0  0  0  0
 17  3  1  0  0  0  0
 18 23  1  0  0  0  0
 18 17  1  0  0  0  0
 19 18  2  0  0  0  0
 20 21  2  0  0  0  0
 20 19  1  0  0  0  0
 21 22  1  0  0  0  0
 22 26  1  0  0  0  0
 22 23  2  0  0  0  0
 24 21  1  0  0  0  0
 25 24  1  0  0  0  0
 26 27  1  0  0  0  0
M  END
>  <MODEL>
1

>  <REMARK>
 VINA RESULT:    -7.432      0.000      0.000
 INTER + INTRA:         -11.450
 INTER:                 -10.881
 INTRA:                  -0.569
 UNBOUND:                -0.760
  Name = CHEMBL4449494
  11 active torsions:
  status: ('A' for Active; 'I' for Inactive)
    1  A    between atoms: C_1  and  O_2
    2  A    between atoms: O_2  and  C_3
    3  A    between atoms: C_5  and  C_6
    4  A    between atoms: C_7  and  C_8
    5  A    between atoms: N_10  and  C_11
    6  A    between atoms: C_11  and  C_12
    7  A    between atoms: C_15  and  O_16
    8  A    between atoms: C_17  and  O_18
    9  A    between atoms: O_18  and  C_19
   10  A    between atoms: C_22  and  O_23
   11  A    between atoms: O_23  and  C_24
                            x       y       z     vdW  Elec       q    Type
                         _______ _______ _______ _____ _____    ______ ____

>  <TORSDO>
F 8

>  <SCORE>
-7.432

>  <RMSD_LB>
0.000

>  <RMSD_UB>
0.000

$$$$
CHEMBL4449494
 OpenBabel10172500253D

 27 28  0  0  0  0  0  0  0  0999 V2000
  134.0400  134.7930  153.0480 C   0  0  0  0  0  0  0  0  0  0  0  0
  133.9530  133.6130  153.3680 O   0  0  0  0  0  0  0  0  0  0  0  0
  133.3530  135.3670  152.0090 N   0  0  0  0  0  0  0  0  0  0  0  0
  133.4620  136.3300  151.8320 H   0  0  0  0  0  0  0  0  0  0  0  0
  135.5070  135.3810  154.9220 C   0  0  0  0  0  3  0  0  0  0  0  0
  134.9300  135.7420  153.7640 C   0  0  0  0  0  3  0  0  0  0  0  0
  138.2580  137.8410  155.7970 C   0  0  0  0  0  0  0  0  0  0  0  0
  137.3760  137.0570  155.0520 C   0  0  0  0  0  3  0  0  0  0  0  0
  136.4320  136.2390  155.6850 C   0  0  0  0  0  0  0  0  0  0  0  0
  136.3510  136.2540  157.0850 C   0  0  0  0  0  3  0  0  0  0  0  0
  137.2350  137.0250  157.8420 C   0  0  0  0  0  0  0  0  0  0  0  0
  138.1810  137.8220  157.1900 C   0  0  0  0  0  3  0  0  0  0  0  0
  139.1790  138.8800  153.8690 C   0  0  0  0  0  1  0  0  0  0  0  0
  139.2360  138.6470  155.2710 O   0  0  0  0  0  0  0  0  0  0  0  0
  137.2920  137.0710  159.2100 O   0  0  0  0  0  0  0  0  0  0  0  0
  136.0990  136.7540  159.9160 C   0  0  0  0  0  1  0  0  0  0  0  0
  132.4700  134.5870  151.1660 C   0  0  0  0  0  2  0  0  0  0  0  0
  133.1690  134.1280  149.9120 C   0  0  0  0  0  0  0  0  0  0  0  0
  133.6990  132.8340  149.8440 C   0  0  0  0  0  3  0  0  0  0  0  0
  134.3280  132.3830  148.6830 C   0  0  0  0  0  3  0  0  0  0  0  0
  134.4130  133.2140  147.5620 C   0  0  0  0  0  0  0  0  0  0  0  0
  133.8700  134.5030  147.5970 C   0  0  0  0  0  0  0  0  0  0  0  0
  133.2750  134.9590  148.7850 C   0  0  0  0  0  3  0  0  0  0  0  0
  135.0500  132.7400  146.4490 O   0  0  0  0  0  0  0  0  0  0  0  0
  134.5600  132.3130  145.7750 H   0  0  0  0  0  0  0  0  0  0  0  0
  133.8780  135.4300  146.5880 O   0  0  0  0  0  0  0  0  0  0  0  0
  134.1320  136.7770  146.9760 C   0  0  0  0  0  1  0  0  0  0  0  0
  1  2  2  0  0  0  0
  1  6  1  0  0  0  0
  3  1  1  0  0  0  0
  4  3  1  0  0  0  0
  5  9  1  0  0  0  0
  6  5  2  0  0  0  0
  7 12  1  0  0  0  0
  8  9  1  0  0  0  0
  8  7  2  0  0  0  0
  9 10  2  0  0  0  0
 10 11  1  0  0  0  0
 11 15  1  0  0  0  0
 12 11  2  0  0  0  0
 13 14  1  0  0  0  0
 14  7  1  0  0  0  0
 15 16  1  0  0  0  0
 17  3  1  0  0  0  0
 18 17  1  0  0  0  0
 19 18  1  0  0  0  0
 20 19  2  0  0  0  0
 21 22  2  0  0  0  0
 21 20  1  0  0  0  0
 22 23  1  0  0  0  0
 23 18  2  0  0  0  0
 24 21  1  0  0  0  0
 25 24  1  0  0  0  0
 26 27  1  0  0  0  0
 26 22  1  0  0  0  0
M  END
>  <MODEL>
2

>  <REMARK>
 VINA RESULT:    -7.231      4.202      8.273
 INTER + INTRA:         -11.162
 INTER:                 -10.558
 INTRA:                  -0.604
 UNBOUND:                -0.760
  Name = CHEMBL4449494
  11 active torsions:
  status: ('A' for Active; 'I' for Inactive)
    1  A    between atoms: C_1  and  O_2
    2  A    between atoms: O_2  and  C_3
    3  A    between atoms: C_5  and  C_6
    4  A    between atoms: C_7  and  C_8
    5  A    between atoms: N_10  and  C_11
    6  A    between atoms: C_11  and  C_12
    7  A    between atoms: C_15  and  O_16
    8  A    between atoms: C_17  and  O_18
    9  A    between atoms: O_18  and  C_19
   10  A    between atoms: C_22  and  O_23
   11  A    between atoms: O_23  and  C_24
                            x       y       z     vdW  Elec       q    Type
                         _______ _______ _______ _____ _____    ______ ____

>  <TORSDO>
F 8

>  <SCORE>
-7.231

>  <RMSD_LB>
4.202

>  <RMSD_UB>
8.273

$$$$
CHEMBL4449494
 OpenBabel10172500253D

 27 28  0  0  0  0  0  0  0  0999 V2000
  139.1860  138.5990  154.7150 C   0  0  0  0  0  0  0  0  0  0  0  0
  139.0760  139.7180  154.2280 O   0  0  0  0  0  0  0  0  0  0  0  0
  140.3690  138.0530  155.1460 N   0  0  0  0  0  0  0  0  0  0  0  0
  140.3680  137.1540  155.5470 H   0  0  0  0  0  0  0  0  0  0  0  0
  137.7190  137.1980  156.0920 C   0  0  0  0  0  3  0  0  0  0  0  0
  138.0230  137.6900  154.8790 C   0  0  0  0  0  3  0  0  0  0  0  0
  134.6680  134.9980  155.6090 C   0  0  0  0  0  0  0  0  0  0  0  0
  135.7690  135.8070  155.3280 C   0  0  0  0  0  3  0  0  0  0  0  0
  136.5660  136.3200  156.3600 C   0  0  0  0  0  0  0  0  0  0  0  0
  136.2670  135.9690  157.6850 C   0  0  0  0  0  3  0  0  0  0  0  0
  135.1610  135.1710  157.9800 C   0  0  0  0  0  0  0  0  0  0  0  0
  134.3700  134.6830  156.9350 C   0  0  0  0  0  3  0  0  0  0  0  0
  134.4080  133.7520  153.6020 C   0  0  0  0  0  1  0  0  0  0  0  0
  133.8120  134.4760  154.6710 O   0  0  0  0  0  0  0  0  0  0  0  0
  134.7360  134.8170  159.2330 O   0  0  0  0  0  0  0  0  0  0  0  0
  134.4530  135.8750  160.1400 C   0  0  0  0  0  1  0  0  0  0  0  0
  141.6200  138.7740  155.0240 C   0  0  0  0  0  2  0  0  0  0  0  0
  142.4610  138.2300  153.8980 C   0  0  0  0  0  0  0  0  0  0  0  0
  141.8450  137.7580  152.7330 C   0  0  0  0  0  3  0  0  0  0  0  0
  142.6090  137.2730  151.6710 C   0  0  0  0  0  3  0  0  0  0  0  0
  144.0030  137.2770  151.7490 C   0  0  0  0  0  0  0  0  0  0  0  0
  144.6440  137.7650  152.8930 C   0  0  0  0  0  0  0  0  0  0  0  0
  143.8630  138.2130  153.9720 C   0  0  0  0  0  3  0  0  0  0  0  0
  144.7150  136.7800  150.6940 O   0  0  0  0  0  0  0  0  0  0  0  0
  145.4210  137.2770  150.3280 H   0  0  0  0  0  0  0  0  0  0  0  0
  145.9940  137.8300  153.1200 O   0  0  0  0  0  0  0  0  0  0  0  0
  146.5380  136.8210  153.9640 C   0  0  0  0  0  1  0  0  0  0  0  0
  1  6  1  0  0  0  0
  1  3  1  0  0  0  0
  2  1  2  0  0  0  0
  3  4  1  0  0  0  0
  5  9  1  0  0  0  0
  6  5  2  0  0  0  0
  7 12  1  0  0  0  0
  8  7  2  0  0  0  0
  8  9  1  0  0  0  0
  9 10  2  0  0  0  0
 10 11  1  0  0  0  0
 11 15  1  0  0  0  0
 12 11  2  0  0  0  0
 13 14  1  0  0  0  0
 14  7  1  0  0  0  0
 15 16  1  0  0  0  0
 17  3  1  0  0  0  0
 18 23  1  0  0  0  0
 18 17  1  0  0  0  0
 19 18  2  0  0  0  0
 20 21  2  0  0  0  0
 20 19  1  0  0  0  0
 21 22  1  0  0  0  0
 22 26  1  0  0  0  0
 22 23  2  0  0  0  0
 24 21  1  0  0  0  0
 25 24  1  0  0  0  0
 26 27  1  0  0  0  0
M  END
>  <MODEL>
3

>  <REMARK>
 VINA RESULT:    -7.126      0.587      2.565
 INTER + INTRA:         -11.011
 INTER:                 -10.497
 INTRA:                  -0.514
 UNBOUND:                -0.760
  Name = CHEMBL4449494
  11 active torsions:
  status: ('A' for Active; 'I' for Inactive)
    1  A    between atoms: C_1  and  O_2
    2  A    between atoms: O_2  and  C_3
    3  A    between atoms: C_5  and  C_6
    4  A    between atoms: C_7  and  C_8
    5  A    between atoms: N_10  and  C_11
    6  A    between atoms: C_11  and  C_12
    7  A    between atoms: C_15  and  O_16
    8  A    between atoms: C_17  and  O_18
    9  A    between atoms: O_18  and  C_19
   10  A    between atoms: C_22  and  O_23
   11  A    between atoms: O_23  and  C_24
                            x       y       z     vdW  Elec       q    Type
                         _______ _______ _______ _____ _____    ______ ____

>  <TORSDO>
F 8

>  <SCORE>
-7.126

>  <RMSD_LB>
0.587

>  <RMSD_UB>
2.565

$$$$
CHEMBL4449494
 OpenBabel10172500253D

 27 28  0  0  0  0  0  0  0  0999 V2000
  138.1570  138.1450  154.8190 C   0  0  0  0  0  0  0  0  0  0  0  0
  137.5260  139.1890  154.9440 O   0  0  0  0  0  0  0  0  0  0  0  0
  138.2120  137.1540  155.7640 N   0  0  0  0  0  0  0  0  0  0  0  0
  138.7250  136.3350  155.5760 H   0  0  0  0  0  0  0  0  0  0  0  0
  140.2950  137.9790  153.6300 C   0  0  0  0  0  3  0  0  0  0  0  0
  138.9590  137.8470  153.6040 C   0  0  0  0  0  3  0  0  0  0  0  0
  143.3840  137.3360  151.5260 C   0  0  0  0  0  0  0  0  0  0  0  0
  142.5690  137.6020  152.6270 C   0  0  0  0  0  3  0  0  0  0  0  0
  141.1770  137.6740  152.4890 C   0  0  0  0  0  0  0  0  0  0  0  0
  140.6070  137.4270  151.2320 C   0  0  0  0  0  3  0  0  0  0  0  0
  141.4120  137.1720  150.1200 C   0  0  0  0  0  0  0  0  0  0  0  0
  142.8000  137.1210  150.2780 C   0  0  0  0  0  3  0  0  0  0  0  0
  145.4410  138.5190  151.6650 C   0  0  0  0  0  1  0  0  0  0  0  0
  144.7550  137.2770  151.5550 O   0  0  0  0  0  0  0  0  0  0  0  0
  140.9730  136.9800  148.8370 O   0  0  0  0  0  0  0  0  0  0  0  0
  140.6820  135.6440  148.4490 C   0  0  0  0  0  1  0  0  0  0  0  0
  137.5290  137.2860  157.0360 C   0  0  0  0  0  2  0  0  0  0  0  0
  136.3850  136.3120  157.1510 C   0  0  0  0  0  0  0  0  0  0  0  0
  135.8700  135.9880  158.4110 C   0  0  0  0  0  3  0  0  0  0  0  0
  134.7950  135.1070  158.5350 C   0  0  0  0  0  3  0  0  0  0  0  0
  134.2030  134.5560  157.3960 C   0  0  0  0  0  0  0  0  0  0  0  0
  134.6850  134.8820  156.1240 C   0  0  0  0  0  0  0  0  0  0  0  0
  135.7920  135.7390  156.0140 C   0  0  0  0  0  3  0  0  0  0  0  0
  133.1620  133.6850  157.5600 O   0  0  0  0  0  0  0  0  0  0  0  0
  132.2930  134.0120  157.6840 H   0  0  0  0  0  0  0  0  0  0  0  0
  134.2160  134.4240  154.9200 O   0  0  0  0  0  0  0  0  0  0  0  0
  133.8840  135.4180  153.9560 C   0  0  0  0  0  1  0  0  0  0  0  0
  1  2  2  0  0  0  0
  1  3  1  0  0  0  0
  3 17  1  0  0  0  0
  4  3  1  0  0  0  0
  6  5  2  0  0  0  0
  6  1  1  0  0  0  0
  7 14  1  0  0  0  0
  7  8  1  0  0  0  0
  9  8  2  0  0  0  0
  9  5  1  0  0  0  0
 10  9  1  0  0  0  0
 11 12  1  0  0  0  0
 11 10  2  0  0  0  0
 12  7  2  0  0  0  0
 14 13  1  0  0  0  0
 15 11  1  0  0  0  0
 16 15  1  0  0  0  0
 17 18  1  0  0  0  0
 18 19  1  0  0  0  0
 19 20  2  0  0  0  0
 21 24  1  0  0  0  0
 21 20  1  0  0  0  0
 22 21  2  0  0  0  0
 23 22  1  0  0  0  0
 23 18  2  0  0  0  0
 24 25  1  0  0  0  0
 26 22  1  0  0  0  0
 27 26  1  0  0  0  0
M  END
>  <MODEL>
4

>  <REMARK>
 VINA RESULT:    -7.028      1.552      9.032
 INTER + INTRA:         -10.869
 INTER:                 -10.306
 INTRA:                  -0.563
 UNBOUND:                -0.760
  Name = CHEMBL4449494
  11 active torsions:
  status: ('A' for Active; 'I' for Inactive)
    1  A    between atoms: C_1  and  O_2
    2  A    between atoms: O_2  and  C_3
    3  A    between atoms: C_5  and  C_6
    4  A    between atoms: C_7  and  C_8
    5  A    between atoms: N_10  and  C_11
    6  A    between atoms: C_11  and  C_12
    7  A    between atoms: C_15  and  O_16
    8  A    between atoms: C_17  and  O_18
    9  A    between atoms: O_18  and  C_19
   10  A    between atoms: C_22  and  O_23
   11  A    between atoms: O_23  and  C_24
                            x       y       z     vdW  Elec       q    Type
                         _______ _______ _______ _____ _____    ______ ____

>  <TORSDO>
F 8

>  <SCORE>
-7.028

>  <RMSD_LB>
1.552

>  <RMSD_UB>
9.032

$$$$
CHEMBL4449494
 OpenBabel10172500253D

 27 28  0  0  0  0  0  0  0  0999 V2000
  139.9610  138.7070  154.6750 C   0  0  0  0  0  0  0  0  0  0  0  0
  139.5600  139.8070  154.3110 O   0  0  0  0  0  0  0  0  0  0  0  0
  141.2050  138.2030  154.3930 N   0  0  0  0  0  0  0  0  0  0  0  0
  141.4580  137.3180  154.7420 H   0  0  0  0  0  0  0  0  0  0  0  0
  137.8200  137.6080  155.1450 C   0  0  0  0  0  3  0  0  0  0  0  0
  139.1130  137.7780  155.4660 C   0  0  0  0  0  3  0  0  0  0  0  0
  136.0790  135.6390  157.8780 C   0  0  0  0  0  0  0  0  0  0  0  0
  136.9330  136.5390  157.2390 C   0  0  0  0  0  3  0  0  0  0  0  0
  136.9100  136.6850  155.8460 C   0  0  0  0  0  0  0  0  0  0  0  0
  135.9810  135.9440  155.1020 C   0  0  0  0  0  3  0  0  0  0  0  0
  135.1300  135.0320  155.7290 C   0  0  0  0  0  0  0  0  0  0  0  0
  135.1800  134.8910  157.1190 C   0  0  0  0  0  3  0  0  0  0  0  0
  135.0370  136.0780  159.9690 C   0  0  0  0  0  1  0  0  0  0  0  0
  136.0490  135.4040  159.2300 O   0  0  0  0  0  0  0  0  0  0  0  0
  134.2290  134.2110  155.1020 O   0  0  0  0  0  0  0  0  0  0  0  0
  134.4090  134.0050  153.7060 C   0  0  0  0  0  1  0  0  0  0  0  0
  142.1560  138.9470  153.5920 C   0  0  0  0  0  2  0  0  0  0  0  0
  143.5680  138.4820  153.8400 C   0  0  0  0  0  0  0  0  0  0  0  0
  143.8870  137.1250  153.7070 C   0  0  0  0  0  3  0  0  0  0  0  0
  145.1940  136.6790  153.9080 C   0  0  0  0  0  3  0  0  0  0  0  0
  146.2070  137.5890  154.2220 C   0  0  0  0  0  0  0  0  0  0  0  0
  145.9170  138.9530  154.3380 C   0  0  0  0  0  0  0  0  0  0  0  0
  144.5910  139.3840  154.1720 C   0  0  0  0  0  3  0  0  0  0  0  0
  147.4710  137.1110  154.4270 O   0  0  0  0  0  0  0  0  0  0  0  0
  147.9500  136.7340  153.7160 H   0  0  0  0  0  0  0  0  0  0  0  0
  146.7950  139.9610  154.6430 O   0  0  0  0  0  0  0  0  0  0  0  0
  146.5440  141.2190  154.0240 C   0  0  0  0  0  1  0  0  0  0  0  0
  1  6  1  0  0  0  0
  2  1  2  0  0  0  0
  3  1  1  0  0  0  0
  3  4  1  0  0  0  0
  5  6  2  0  0  0  0
  5  9  1  0  0  0  0
  7 14  1  0  0  0  0
  8  7  1  0  0  0  0
  9  8  2  0  0  0  0
 10 11  2  0  0  0  0
 10  9  1  0  0  0  0
 11 12  1  0  0  0  0
 12  7  2  0  0  0  0
 14 13  1  0  0  0  0
 15 11  1  0  0  0  0
 16 15  1  0  0  0  0
 17 18  1  0  0  0  0
 17  3  1  0  0  0  0
 18 23  1  0  0  0  0
 19 18  2  0  0  0  0
 19 20  1  0  0  0  0
 20 21  2  0  0  0  0
 21 22  1  0  0  0  0
 21 24  1  0  0  0  0
 22 26  1  0  0  0  0
 23 22  2  0  0  0  0
 25 24  1  0  0  0  0
 27 26  1  0  0  0  0
M  END
>  <MODEL>
5

>  <REMARK>
 VINA RESULT:    -7.011      1.718      2.395
 INTER + INTRA:         -10.845
 INTER:                 -10.386
 INTRA:                  -0.459
 UNBOUND:                -0.760
  Name = CHEMBL4449494
  11 active torsions:
  status: ('A' for Active; 'I' for Inactive)
    1  A    between atoms: C_1  and  O_2
    2  A    between atoms: O_2  and  C_3
    3  A    between atoms: C_5  and  C_6
    4  A    between atoms: C_7  and  C_8
    5  A    between atoms: N_10  and  C_11
    6  A    between atoms: C_11  and  C_12
    7  A    between atoms: C_15  and  O_16
    8  A    between atoms: C_17  and  O_18
    9  A    between atoms: O_18  and  C_19
   10  A    between atoms: C_22  and  O_23
   11  A    between atoms: O_23  and  C_24
                            x       y       z     vdW  Elec       q    Type
                         _______ _______ _______ _____ _____    ______ ____

>  <TORSDO>
F 8

>  <SCORE>
-7.011

>  <RMSD_LB>
1.718

>  <RMSD_UB>
2.395

$$$$
CHEMBL4449494
 OpenBabel10172500253D

 27 28  0  0  0  0  0  0  0  0999 V2000
  143.5990  139.3100  150.7300 C   0  0  0  0  0  0  0  0  0  0  0  0
  144.2840  138.5980  150.0050 O   0  0  0  0  0  0  0  0  0  0  0  0
  143.9650  140.5610  151.1590 N   0  0  0  0  0  0  0  0  0  0  0  0
  143.3450  141.0780  151.7230 H   0  0  0  0  0  0  0  0  0  0  0  0
  142.0180  138.9070  152.5600 C   0  0  0  0  0  3  0  0  0  0  0  0
  142.2750  138.8740  151.2420 C   0  0  0  0  0  3  0  0  0  0  0  0
  139.2710  138.2240  155.0830 C   0  0  0  0  0  0  0  0  0  0  0  0
  140.4950  138.6120  154.5380 C   0  0  0  0  0  3  0  0  0  0  0  0
  140.7250  138.5290  153.1590 C   0  0  0  0  0  0  0  0  0  0  0  0
  139.6870  138.0930  152.3230 C   0  0  0  0  0  3  0  0  0  0  0  0
  138.4620  137.6900  152.8580 C   0  0  0  0  0  0  0  0  0  0  0  0
  138.2590  137.7660  154.2390 C   0  0  0  0  0  3  0  0  0  0  0  0
  137.6320  137.8720  156.7680 C   0  0  0  0  0  1  0  0  0  0  0  0
  138.9620  138.2390  156.4210 O   0  0  0  0  0  0  0  0  0  0  0  0
  137.4020  137.1890  152.1500 O   0  0  0  0  0  0  0  0  0  0  0  0
  137.4640  137.2970  150.7330 C   0  0  0  0  0  1  0  0  0  0  0  0
  145.2450  141.1370  150.7990 C   0  0  0  0  0  2  0  0  0  0  0  0
  146.2270  141.0500  151.9380 C   0  0  0  0  0  0  0  0  0  0  0  0
  146.3610  142.1240  152.8260 C   0  0  0  0  0  3  0  0  0  0  0  0
  147.2480  142.0520  153.9010 C   0  0  0  0  0  3  0  0  0  0  0  0
  147.9960  140.8920  154.1180 C   0  0  0  0  0  0  0  0  0  0  0  0
  147.8630  139.7970  153.2580 C   0  0  0  0  0  0  0  0  0  0  0  0
  146.9970  139.8960  152.1570 C   0  0  0  0  0  3  0  0  0  0  0  0
  148.8650  140.8660  155.1730 O   0  0  0  0  0  0  0  0  0  0  0  0
  148.7840  140.2040  155.8310 H   0  0  0  0  0  0  0  0  0  0  0  0
  148.5270  138.5990  153.3360 O   0  0  0  0  0  0  0  0  0  0  0  0
  147.8830  137.5720  154.0830 C   0  0  0  0  0  1  0  0  0  0  0  0
  1  3  1  0  0  0  0
  1  6  1  0  0  0  0
  2  1  2  0  0  0  0
  3  4  1  0  0  0  0
  5  9  1  0  0  0  0
  6  5  2  0  0  0  0
  7 14  1  0  0  0  0
  8  7  1  0  0  0  0
  9  8  2  0  0  0  0
 10 11  2  0  0  0  0
 10  9  1  0  0  0  0
 11 12  1  0  0  0  0
 12  7  2  0  0  0  0
 14 13  1  0  0  0  0
 15 11  1  0  0  0  0
 16 15  1  0  0  0  0
 17  3  1  0  0  0  0
 17 18  1  0  0  0  0
 18 23  2  0  0  0  0
 18 19  1  0  0  0  0
 19 20  2  0  0  0  0
 20 21  1  0  0  0  0
 21 24  1  0  0  0  0
 22 26  1  0  0  0  0
 22 21  2  0  0  0  0
 23 22  1  0  0  0  0
 24 25  1  0  0  0  0
 26 27  1  0  0  0  0
M  END
>  <MODEL>
6

>  <REMARK>
 VINA RESULT:    -6.984      3.476      5.760
 INTER + INTRA:         -10.807
 INTER:                 -10.074
 INTRA:                  -0.732
 UNBOUND:                -0.760
  Name = CHEMBL4449494
  11 active torsions:
  status: ('A' for Active; 'I' for Inactive)
    1  A    between atoms: C_1  and  O_2
    2  A    between atoms: O_2  and  C_3
    3  A    between atoms: C_5  and  C_6
    4  A    between atoms: C_7  and  C_8
    5  A    between atoms: N_10  and  C_11
    6  A    between atoms: C_11  and  C_12
    7  A    between atoms: C_15  and  O_16
    8  A    between atoms: C_17  and  O_18
    9  A    between atoms: O_18  and  C_19
   10  A    between atoms: C_22  and  O_23
   11  A    between atoms: O_23  and  C_24
                            x       y       z     vdW  Elec       q    Type
                         _______ _______ _______ _____ _____    ______ ____

>  <TORSDO>
F 8

>  <SCORE>
-6.984

>  <RMSD_LB>
3.476

>  <RMSD_UB>
5.760

$$$$
CHEMBL4449494
 OpenBabel10172500253D

 27 28  0  0  0  0  0  0  0  0999 V2000
  139.2250  138.5400  154.2580 C   0  0  0  0  0  0  0  0  0  0  0  0
  138.7210  139.6550  154.1920 O   0  0  0  0  0  0  0  0  0  0  0  0
  138.6340  137.4550  154.8530 N   0  0  0  0  0  0  0  0  0  0  0  0
  139.0980  136.5870  154.8430 H   0  0  0  0  0  0  0  0  0  0  0  0
  141.6730  138.6630  154.3370 C   0  0  0  0  0  3  0  0  0  0  0  0
  140.5680  138.2460  153.6960 C   0  0  0  0  0  3  0  0  0  0  0  0
  145.4500  138.7340  154.0080 C   0  0  0  0  0  0  0  0  0  0  0  0
  144.1610  138.9890  154.4770 C   0  0  0  0  0  3  0  0  0  0  0  0
  143.0460  138.3900  153.8770 C   0  0  0  0  0  0  0  0  0  0  0  0
  143.2470  137.4880  152.8220 C   0  0  0  0  0  3  0  0  0  0  0  0
  144.5310  137.2340  152.3350 C   0  0  0  0  0  0  0  0  0  0  0  0
  145.6280  137.8560  152.9390 C   0  0  0  0  0  3  0  0  0  0  0  0
  147.3510  138.5000  155.4140 C   0  0  0  0  0  1  0  0  0  0  0  0
  146.5980  139.2960  154.5070 O   0  0  0  0  0  0  0  0  0  0  0  0
  144.8420  136.4260  151.2740 O   0  0  0  0  0  0  0  0  0  0  0  0
  146.1720  135.9250  151.2150 C   0  0  0  0  0  1  0  0  0  0  0  0
  137.3410  137.5600  155.4980 C   0  0  0  0  0  2  0  0  0  0  0  0
  136.4160  136.4550  155.0590 C   0  0  0  0  0  0  0  0  0  0  0  0
  136.4130  136.0390  153.7220 C   0  0  0  0  0  3  0  0  0  0  0  0
  135.5810  135.0000  153.3030 C   0  0  0  0  0  3  0  0  0  0  0  0
  134.7570  134.3450  154.2220 C   0  0  0  0  0  0  0  0  0  0  0  0
  134.7600  134.7260  155.5670 C   0  0  0  0  0  0  0  0  0  0  0  0
  135.5720  135.7990  155.9690 C   0  0  0  0  0  3  0  0  0  0  0  0
  133.9460  133.3420  153.7680 O   0  0  0  0  0  0  0  0  0  0  0  0
  134.2690  132.4640  153.7170 H   0  0  0  0  0  0  0  0  0  0  0  0
  134.0100  134.1870  156.5810 O   0  0  0  0  0  0  0  0  0  0  0  0
  134.2950  134.6620  157.8930 C   0  0  0  0  0  1  0  0  0  0  0  0
  1  3  1  0  0  0  0
  2  1  2  0  0  0  0
  3 17  1  0  0  0  0
  4  3  1  0  0  0  0
  6  1  1  0  0  0  0
  6  5  2  0  0  0  0
  7  8  1  0  0  0  0
  7 14  1  0  0  0  0
  9  5  1  0  0  0  0
  9  8  2  0  0  0  0
 10  9  1  0  0  0  0
 11 10  2  0  0  0  0
 11 12  1  0  0  0  0
 12  7  2  0  0  0  0
 14 13  1  0  0  0  0
 15 11  1  0  0  0  0
 16 15  1  0  0  0  0
 18 17  1  0  0  0  0
 18 23  1  0  0  0  0
 19 18  2  0  0  0  0
 20 19  1  0  0  0  0
 20 21  2  0  0  0  0
 21 22  1  0  0  0  0
 22 23  2  0  0  0  0
 22 26  1  0  0  0  0
 24 21  1  0  0  0  0
 25 24  1  0  0  0  0
 26 27  1  0  0  0  0
M  END
>  <MODEL>
7

>  <REMARK>
 VINA RESULT:    -6.937      1.549      9.246
 INTER + INTRA:         -10.738
 INTER:                 -10.209
 INTRA:                  -0.530
 UNBOUND:                -0.760
  Name = CHEMBL4449494
  11 active torsions:
  status: ('A' for Active; 'I' for Inactive)
    1  A    between atoms: C_1  and  O_2
    2  A    between atoms: O_2  and  C_3
    3  A    between atoms: C_5  and  C_6
    4  A    between atoms: C_7  and  C_8
    5  A    between atoms: N_10  and  C_11
    6  A    between atoms: C_11  and  C_12
    7  A    between atoms: C_15  and  O_16
    8  A    between atoms: C_17  and  O_18
    9  A    between atoms: O_18  and  C_19
   10  A    between atoms: C_22  and  O_23
   11  A    between atoms: O_23  and  C_24
                            x       y       z     vdW  Elec       q    Type
                         _______ _______ _______ _____ _____    ______ ____

>  <TORSDO>
F 8

>  <SCORE>
-6.937

>  <RMSD_LB>
1.549

>  <RMSD_UB>
9.246

$$$$
CHEMBL4449494
 OpenBabel10172500253D

 27 28  0  0  0  0  0  0  0  0999 V2000
  138.9580  138.4330  154.2080 C   0  0  0  0  0  0  0  0  0  0  0  0
  138.8450  139.6320  154.4340 O   0  0  0  0  0  0  0  0  0  0  0  0
  138.3860  137.4430  154.9660 N   0  0  0  0  0  0  0  0  0  0  0  0
  138.5080  136.5030  154.7020 H   0  0  0  0  0  0  0  0  0  0  0  0
  141.0930  138.0640  153.0600 C   0  0  0  0  0  3  0  0  0  0  0  0
  139.7580  137.9160  153.0680 C   0  0  0  0  0  3  0  0  0  0  0  0
  144.1810  137.0890  151.0870 C   0  0  0  0  0  0  0  0  0  0  0  0
  143.3680  137.5530  152.1210 C   0  0  0  0  0  3  0  0  0  0  0  0
  141.9730  137.5550  151.9930 C   0  0  0  0  0  0  0  0  0  0  0  0
  141.3990  137.0370  150.8230 C   0  0  0  0  0  3  0  0  0  0  0  0
  142.2020  136.5810  149.7760 C   0  0  0  0  0  0  0  0  0  0  0  0
  143.5930  136.6030  149.9190 C   0  0  0  0  0  3  0  0  0  0  0  0
  146.1760  135.7980  151.1300 C   0  0  0  0  0  1  0  0  0  0  0  0
  145.5530  137.0770  151.1060 O   0  0  0  0  0  0  0  0  0  0  0  0
  141.7580  136.1150  148.5670 O   0  0  0  0  0  0  0  0  0  0  0  0
  140.3910  136.3470  148.2500 C   0  0  0  0  0  1  0  0  0  0  0  0
  137.6060  137.7540  156.1470 C   0  0  0  0  0  2  0  0  0  0  0  0
  136.5400  136.7170  156.3910 C   0  0  0  0  0  0  0  0  0  0  0  0
  135.8880  136.1210  155.3060 C   0  0  0  0  0  3  0  0  0  0  0  0
  134.9150  135.1420  155.5120 C   0  0  0  0  0  3  0  0  0  0  0  0
  134.6000  134.7260  156.8080 C   0  0  0  0  0  0  0  0  0  0  0  0
  135.2550  135.2890  157.9070 C   0  0  0  0  0  0  0  0  0  0  0  0
  136.2030  136.3020  157.6890 C   0  0  0  0  0  3  0  0  0  0  0  0
  133.6310  133.7750  156.9680 O   0  0  0  0  0  0  0  0  0  0  0  0
  133.7570  133.0760  157.5790 H   0  0  0  0  0  0  0  0  0  0  0  0
  135.0550  134.9920  159.2310 O   0  0  0  0  0  0  0  0  0  0  0  0
  134.9480  136.1030  160.1140 C   0  0  0  0  0  1  0  0  0  0  0  0
  1  2  2  0  0  0  0
  1  3  1  0  0  0  0
  3 17  1  0  0  0  0
  4  3  1  0  0  0  0
  5  6  2  0  0  0  0
  6  1  1  0  0  0  0
  7 14  1  0  0  0  0
  7  8  1  0  0  0  0
  9  8  2  0  0  0  0
  9  5  1  0  0  0  0
 10  9  1  0  0  0  0
 11 12  1  0  0  0  0
 11 10  2  0  0  0  0
 12  7  2  0  0  0  0
 14 13  1  0  0  0  0
 15 11  1  0  0  0  0
 16 15  1  0  0  0  0
 17 18  1  0  0  0  0
 18 23  1  0  0  0  0
 19 20  1  0  0  0  0
 19 18  2  0  0  0  0
 20 21  2  0  0  0  0
 21 24  1  0  0  0  0
 21 22  1  0  0  0  0
 22 26  1  0  0  0  0
 23 22  2  0  0  0  0
 24 25  1  0  0  0  0
 26 27  1  0  0  0  0
M  END
>  <MODEL>
8

>  <REMARK>
 VINA RESULT:    -6.794      1.423      9.188
 INTER + INTRA:         -10.533
 INTER:                 -10.021
 INTRA:                  -0.512
 UNBOUND:                -0.760
  Name = CHEMBL4449494
  11 active torsions:
  status: ('A' for Active; 'I' for Inactive)
    1  A    between atoms: C_1  and  O_2
    2  A    between atoms: O_2  and  C_3
    3  A    between atoms: C_5  and  C_6
    4  A    between atoms: C_7  and  C_8
    5  A    between atoms: N_10  and  C_11
    6  A    between atoms: C_11  and  C_12
    7  A    between atoms: C_15  and  O_16
    8  A    between atoms: C_17  and  O_18
    9  A    between atoms: O_18  and  C_19
   10  A    between atoms: C_22  and  O_23
   11  A    between atoms: O_23  and  C_24
                            x       y       z     vdW  Elec       q    Type
                         _______ _______ _______ _____ _____    ______ ____

>  <TORSDO>
F 8

>  <SCORE>
-6.794

>  <RMSD_LB>
1.423

>  <RMSD_UB>
9.188

$$$$
CHEMBL4449494
 OpenBabel10172500253D

 27 28  0  0  0  0  0  0  0  0999 V2000
  145.4950  140.4960  148.7700 C   0  0  0  0  0  0  0  0  0  0  0  0
  146.4960  140.1120  148.1770 O   0  0  0  0  0  0  0  0  0  0  0  0
  145.4570  141.5840  149.6040 N   0  0  0  0  0  0  0  0  0  0  0  0
  144.6050  141.8400  150.0250 H   0  0  0  0  0  0  0  0  0  0  0  0
  143.2940  139.8710  149.6510 C   0  0  0  0  0  3  0  0  0  0  0  0
  144.1900  139.7970  148.6520 C   0  0  0  0  0  3  0  0  0  0  0  0
  140.5200  137.3140  149.2680 C   0  0  0  0  0  0  0  0  0  0  0  0
  141.7930  137.8810  149.3240 C   0  0  0  0  0  3  0  0  0  0  0  0
  141.9610  139.2420  149.6120 C   0  0  0  0  0  0  0  0  0  0  0  0
  140.8290  140.0210  149.8910 C   0  0  0  0  0  3  0  0  0  0  0  0
  139.5490  139.4680  149.8260 C   0  0  0  0  0  0  0  0  0  0  0  0
  139.4030  138.1110  149.5210 C   0  0  0  0  0  3  0  0  0  0  0  0
  141.3060  135.2630  148.3600 C   0  0  0  0  0  1  0  0  0  0  0  0
  140.2520  136.0020  148.9640 O   0  0  0  0  0  0  0  0  0  0  0  0
  138.3720  140.1420  150.0150 O   0  0  0  0  0  0  0  0  0  0  0  0
  137.6960  140.5980  148.8500 C   0  0  0  0  0  1  0  0  0  0  0  0
  146.6460  142.3660  149.8780 C   0  0  0  0  0  2  0  0  0  0  0  0
  147.2130  142.0470  151.2380 C   0  0  0  0  0  0  0  0  0  0  0  0
  148.5830  142.2080  151.4760 C   0  0  0  0  0  3  0  0  0  0  0  0
  149.1210  141.9410  152.7360 C   0  0  0  0  0  3  0  0  0  0  0  0
  148.2910  141.5340  153.7830 C   0  0  0  0  0  0  0  0  0  0  0  0
  146.9150  141.3890  153.5760 C   0  0  0  0  0  0  0  0  0  0  0  0
  146.3910  141.6220  152.2940 C   0  0  0  0  0  3  0  0  0  0  0  0
  148.8590  141.2690  154.9980 O   0  0  0  0  0  0  0  0  0  0  0  0
  149.3000  140.4540  155.1420 H   0  0  0  0  0  0  0  0  0  0  0  0
  145.9780  140.9970  154.4960 O   0  0  0  0  0  0  0  0  0  0  0  0
  145.6840  139.6040  154.5380 C   0  0  0  0  0  1  0  0  0  0  0  0
  1  3  1  0  0  0  0
  2  1  2  0  0  0  0
  3 17  1  0  0  0  0
  3  4  1  0  0  0  0
  6  1  1  0  0  0  0
  6  5  2  0  0  0  0
  7  8  2  0  0  0  0
  7 12  1  0  0  0  0
  8  9  1  0  0  0  0
  9  5  1  0  0  0  0
  9 10  2  0  0  0  0
 11 10  1  0  0  0  0
 11 15  1  0  0  0  0
 12 11  2  0  0  0  0
 13 14  1  0  0  0  0
 14  7  1  0  0  0  0
 16 15  1  0  0  0  0
 17 18  1  0  0  0  0
 18 19  2  0  0  0  0
 18 23  1  0  0  0  0
 19 20  1  0  0  0  0
 20 21  2  0  0  0  0
 21 24  1  0  0  0  0
 22 21  1  0  0  0  0
 22 26  1  0  0  0  0
 23 22  2  0  0  0  0
 24 25  1  0  0  0  0
 26 27  1  0  0  0  0
M  END
>  <MODEL>
9

>  <REMARK>
 VINA RESULT:    -6.713      6.797      8.636
 INTER + INTRA:         -10.415
 INTER:                  -9.656
 INTRA:                  -0.760
 UNBOUND:                -0.760
  Name = CHEMBL4449494
  11 active torsions:
  status: ('A' for Active; 'I' for Inactive)
    1  A    between atoms: C_1  and  O_2
    2  A    between atoms: O_2  and  C_3
    3  A    between atoms: C_5  and  C_6
    4  A    between atoms: C_7  and  C_8
    5  A    between atoms: N_10  and  C_11
    6  A    between atoms: C_11  and  C_12
    7  A    between atoms: C_15  and  O_16
    8  A    between atoms: C_17  and  O_18
    9  A    between atoms: O_18  and  C_19
   10  A    between atoms: C_22  and  O_23
   11  A    between atoms: O_23  and  C_24
                            x       y       z     vdW  Elec       q    Type
                         _______ _______ _______ _____ _____    ______ ____

>  <TORSDO>
F 8

>  <SCORE>
-6.713

>  <RMSD_LB>
6.797

>  <RMSD_UB>
8.636

$$$$
