CHEMBL419862
 OpenBabel10162523453D

 19 19  0  0  0  0  0  0  0  0999 V2000
  146.4870  141.7810  152.5930 C   0  0  0  0  0  0  0  0  0  0  0  0
  147.4980  142.3220  151.7920 C   0  0  0  0  0  3  0  0  0  0  0  0
  147.3690  142.3280  150.4010 C   0  0  0  0  0  3  0  0  0  0  0  0
  146.2220  141.8040  149.7940 C   0  0  0  0  0  0  0  0  0  0  0  0
  145.1880  141.2810  150.5760 C   0  0  0  0  0  0  0  0  0  0  0  0
  145.3340  141.2780  151.9730 C   0  0  0  0  0  3  0  0  0  0  0  0
  146.1500  141.8230  148.4280 O   0  0  0  0  0  0  0  0  0  0  0  0
  146.7610  142.3330  147.9340 H   0  0  0  0  0  0  0  0  0  0  0  0
  144.0000  140.7360  150.1660 O   0  0  0  0  0  0  0  0  0  0  0  0
  143.2490  139.9810  151.1040 C   0  0  0  0  0  1  0  0  0  0  0  0
  146.6390  141.7380  154.0920 C   0  0  0  0  0  2  0  0  0  0  0  0
  147.7190  139.6410  154.8030 C   0  0  0  0  0  0  0  0  0  0  0  0
  148.8450  140.0600  154.5520 O   0  0  0  0  0  0  0  0  0  0  0  0
  146.5810  140.3840  154.5950 N   0  0  0  0  0  0  0  0  0  0  0  0
  145.7040  139.9840  154.7930 H   0  0  0  0  0  0  0  0  0  0  0  0
  147.4620  138.2390  155.3240 C   0  0  0  0  0  2  0  0  0  0  0  0
  147.3220  137.2540  154.1630 C   0  0  0  0  0  2  0  0  0  0  0  0
  145.3850  137.2500  152.5660 C   0  0  0  0  0  1  0  0  0  0  0  0
  145.8760  136.8160  153.9390 C   0  0  0  0  0  2  0  0  0  0  0  0
  1 11  1  0  0  0  0
  2  1  2  0  0  0  0
  3  2  1  0  0  0  0
  4  3  2  0  0  0  0
  4  5  1  0  0  0  0
  5  6  2  0  0  0  0
  6  1  1  0  0  0  0
  7  4  1  0  0  0  0
  8  7  1  0  0  0  0
  9  5  1  0  0  0  0
  9 10  1  0  0  0  0
 11 14  1  0  0  0  0
 12 16  1  0  0  0  0
 13 12  2  0  0  0  0
 14 15  1  0  0  0  0
 14 12  1  0  0  0  0
 17 16  1  0  0  0  0
 18 19  1  0  0  0  0
 19 17  1  0  0  0  0
M  END
>  <MODEL>
1

>  <REMARK>
 VINA RESULT:    -6.057      0.000      0.000
 INTER + INTRA:          -8.889
 INTER:                  -8.203
 INTRA:                  -0.686
 UNBOUND:                -0.530
  Name = CHEMBL419862
  9 active torsions:
  status: ('A' for Active; 'I' for Inactive)
    1  A    between atoms: C_1  and  C_2
    2  A    between atoms: C_2  and  C_3
    3  A    between atoms: C_3  and  C_4
    4  A    between atoms: C_4  and  C_5
    5  A    between atoms: N_7  and  C_8
    6  A    between atoms: C_8  and  C_9
    7  A    between atoms: C_12  and  O_13
    8  A    between atoms: C_14  and  O_15
    9  A    between atoms: O_15  and  C_16
                            x       y       z     vdW  Elec       q    Type
                         _______ _______ _______ _____ _____    ______ ____

>  <TORSDO>
F 7

>  <SCORE>
-6.057

>  <RMSD_LB>
0.000

>  <RMSD_UB>
0.000

$$$$
CHEMBL419862
 OpenBabel10162523453D

 19 19  0  0  0  0  0  0  0  0999 V2000
  136.4960  136.4470  155.3640 C   0  0  0  0  0  0  0  0  0  0  0  0
  136.4790  136.2650  153.9780 C   0  0  0  0  0  3  0  0  0  0  0  0
  135.6290  135.3180  153.4000 C   0  0  0  0  0  3  0  0  0  0  0  0
  134.7760  134.5510  154.2010 C   0  0  0  0  0  0  0  0  0  0  0  0
  134.7580  134.7330  155.5870 C   0  0  0  0  0  0  0  0  0  0  0  0
  135.6200  135.6860  156.1530 C   0  0  0  0  0  3  0  0  0  0  0  0
  133.9730  133.6290  153.5880 O   0  0  0  0  0  0  0  0  0  0  0  0
  134.3540  132.8940  153.1490 H   0  0  0  0  0  0  0  0  0  0  0  0
  133.9950  134.0860  156.5230 O   0  0  0  0  0  0  0  0  0  0  0  0
  133.9240  134.6380  157.8290 C   0  0  0  0  0  1  0  0  0  0  0  0
  137.4370  137.4410  155.9940 C   0  0  0  0  0  2  0  0  0  0  0  0
  139.7870  137.9240  155.4350 C   0  0  0  0  0  0  0  0  0  0  0  0
  140.1800  137.6570  156.5670 O   0  0  0  0  0  0  0  0  0  0  0  0
  138.4640  137.8630  155.0690 N   0  0  0  0  0  0  0  0  0  0  0  0
  138.2080  138.1130  154.1510 H   0  0  0  0  0  0  0  0  0  0  0  0
  140.7190  138.3990  154.3340 C   0  0  0  0  0  2  0  0  0  0  0  0
  140.1370  138.0660  152.9610 C   0  0  0  0  0  2  0  0  0  0  0  0
  140.5520  137.1170  150.6730 C   0  0  0  0  0  1  0  0  0  0  0  0
  141.1660  137.4240  152.0310 C   0  0  0  0  0  2  0  0  0  0  0  0
  1 11  1  0  0  0  0
  1  6  1  0  0  0  0
  2  1  2  0  0  0  0
  3  2  1  0  0  0  0
  3  4  2  0  0  0  0
  4  5  1  0  0  0  0
  5  6  2  0  0  0  0
  5  9  1  0  0  0  0
  7  4  1  0  0  0  0
  8  7  1  0  0  0  0
  9 10  1  0  0  0  0
 12 13  2  0  0  0  0
 14 12  1  0  0  0  0
 14 11  1  0  0  0  0
 15 14  1  0  0  0  0
 16 12  1  0  0  0  0
 17 16  1  0  0  0  0
 18 19  1  0  0  0  0
 19 17  1  0  0  0  0
M  END
>  <MODEL>
2

>  <REMARK>
 VINA RESULT:    -5.735      8.978     11.085
 INTER + INTRA:          -8.445
 INTER:                  -7.970
 INTRA:                  -0.476
 UNBOUND:                -0.530
  Name = CHEMBL419862
  9 active torsions:
  status: ('A' for Active; 'I' for Inactive)
    1  A    between atoms: C_1  and  C_2
    2  A    between atoms: C_2  and  C_3
    3  A    between atoms: C_3  and  C_4
    4  A    between atoms: C_4  and  C_5
    5  A    between atoms: N_7  and  C_8
    6  A    between atoms: C_8  and  C_9
    7  A    between atoms: C_12  and  O_13
    8  A    between atoms: C_14  and  O_15
    9  A    between atoms: O_15  and  C_16
                            x       y       z     vdW  Elec       q    Type
                         _______ _______ _______ _____ _____    ______ ____

>  <TORSDO>
F 7

>  <SCORE>
-5.735

>  <RMSD_LB>
8.978

>  <RMSD_UB>
11.085

$$$$
CHEMBL419862
 OpenBabel10162523453D

 19 19  0  0  0  0  0  0  0  0999 V2000
  136.5030  136.1830  153.9270 C   0  0  0  0  0  0  0  0  0  0  0  0
  136.2230  136.0660  152.5630 C   0  0  0  0  0  3  0  0  0  0  0  0
  135.2470  135.1720  152.1160 C   0  0  0  0  0  3  0  0  0  0  0  0
  134.5310  134.3920  153.0310 C   0  0  0  0  0  0  0  0  0  0  0  0
  134.7770  134.5090  154.4020 C   0  0  0  0  0  0  0  0  0  0  0  0
  135.7630  135.4110  154.8350 C   0  0  0  0  0  3  0  0  0  0  0  0
  133.5950  133.5220  152.5420 O   0  0  0  0  0  0  0  0  0  0  0  0
  132.7880  133.3960  153.0000 H   0  0  0  0  0  0  0  0  0  0  0  0
  134.1780  133.8410  155.4370 O   0  0  0  0  0  0  0  0  0  0  0  0
  134.2630  134.4040  156.7370 C   0  0  0  0  0  1  0  0  0  0  0  0
  137.5800  137.1200  154.4100 C   0  0  0  0  0  2  0  0  0  0  0  0
  137.4430  137.9160  156.7370 C   0  0  0  0  0  0  0  0  0  0  0  0
  136.8970  138.9670  156.4150 O   0  0  0  0  0  0  0  0  0  0  0  0
  137.8280  136.9620  155.8260 N   0  0  0  0  0  0  0  0  0  0  0  0
  138.2830  136.1500  156.1450 H   0  0  0  0  0  0  0  0  0  0  0  0
  137.7960  137.5830  158.1760 C   0  0  0  0  0  2  0  0  0  0  0  0
  136.6570  137.9870  159.1130 C   0  0  0  0  0  2  0  0  0  0  0  0
  136.4510  135.5290  159.5800 C   0  0  0  0  0  1  0  0  0  0  0  0
  135.6930  136.8350  159.3910 C   0  0  0  0  0  2  0  0  0  0  0  0
  1 11  1  0  0  0  0
  1  6  1  0  0  0  0
  2  1  2  0  0  0  0
  3  2  1  0  0  0  0
  3  4  2  0  0  0  0
  4  5  1  0  0  0  0
  5  6  2  0  0  0  0
  5  9  1  0  0  0  0
  7  8  1  0  0  0  0
  7  4  1  0  0  0  0
  9 10  1  0  0  0  0
 11 14  1  0  0  0  0
 12 16  1  0  0  0  0
 13 12  2  0  0  0  0
 14 15  1  0  0  0  0
 14 12  1  0  0  0  0
 16 17  1  0  0  0  0
 17 19  1  0  0  0  0
 19 18  1  0  0  0  0
M  END
>  <MODEL>
3

>  <REMARK>
 VINA RESULT:    -5.702     10.213     12.185
 INTER + INTRA:          -8.399
 INTER:                  -7.837
 INTRA:                  -0.562
 UNBOUND:                -0.530
  Name = CHEMBL419862
  9 active torsions:
  status: ('A' for Active; 'I' for Inactive)
    1  A    between atoms: C_1  and  C_2
    2  A    between atoms: C_2  and  C_3
    3  A    between atoms: C_3  and  C_4
    4  A    between atoms: C_4  and  C_5
    5  A    between atoms: N_7  and  C_8
    6  A    between atoms: C_8  and  C_9
    7  A    between atoms: C_12  and  O_13
    8  A    between atoms: C_14  and  O_15
    9  A    between atoms: O_15  and  C_16
                            x       y       z     vdW  Elec       q    Type
                         _______ _______ _______ _____ _____    ______ ____

>  <TORSDO>
F 7

>  <SCORE>
-5.702

>  <RMSD_LB>
10.213

>  <RMSD_UB>
12.185

$$$$
CHEMBL419862
 OpenBabel10162523453D

 19 19  0  0  0  0  0  0  0  0999 V2000
  141.6640  138.5040  153.4780 C   0  0  0  0  0  0  0  0  0  0  0  0
  141.0790  138.0760  152.2840 C   0  0  0  0  0  3  0  0  0  0  0  0
  139.7070  137.8180  152.2210 C   0  0  0  0  0  3  0  0  0  0  0  0
  138.9020  137.9980  153.3520 C   0  0  0  0  0  0  0  0  0  0  0  0
  139.4610  138.4490  154.5510 C   0  0  0  0  0  0  0  0  0  0  0  0
  140.8420  138.7010  154.5980 C   0  0  0  0  0  3  0  0  0  0  0  0
  137.5670  137.7200  153.2420 O   0  0  0  0  0  0  0  0  0  0  0  0
  136.9590  138.4080  153.0570 H   0  0  0  0  0  0  0  0  0  0  0  0
  138.8380  138.6880  155.7470 O   0  0  0  0  0  0  0  0  0  0  0  0
  138.7210  137.6150  156.6680 C   0  0  0  0  0  1  0  0  0  0  0  0
  143.1490  138.7480  153.5590 C   0  0  0  0  0  2  0  0  0  0  0  0
  144.7530  139.9560  152.1310 C   0  0  0  0  0  0  0  0  0  0  0  0
  145.5830  139.0540  152.1890 O   0  0  0  0  0  0  0  0  0  0  0  0
  143.5430  139.9020  152.7820 N   0  0  0  0  0  0  0  0  0  0  0  0
  142.9280  140.6670  152.7170 H   0  0  0  0  0  0  0  0  0  0  0  0
  144.9960  141.2500  151.3740 C   0  0  0  0  0  2  0  0  0  0  0  0
  145.6540  142.2860  152.2850 C   0  0  0  0  0  2  0  0  0  0  0  0
  147.5660  141.8560  153.8550 C   0  0  0  0  0  1  0  0  0  0  0  0
  147.1640  142.0840  152.4050 C   0  0  0  0  0  2  0  0  0  0  0  0
  1 11  1  0  0  0  0
  1  6  1  0  0  0  0
  2  1  2  0  0  0  0
  3  2  1  0  0  0  0
  3  4  2  0  0  0  0
  4  5  1  0  0  0  0
  5  6  2  0  0  0  0
  5  9  1  0  0  0  0
  7  4  1  0  0  0  0
  8  7  1  0  0  0  0
  9 10  1  0  0  0  0
 12 13  2  0  0  0  0
 12 14  1  0  0  0  0
 14 11  1  0  0  0  0
 15 14  1  0  0  0  0
 16 12  1  0  0  0  0
 16 17  1  0  0  0  0
 17 19  1  0  0  0  0
 19 18  1  0  0  0  0
M  END
>  <MODEL>
4

>  <REMARK>
 VINA RESULT:    -5.618      4.396      6.728
 INTER + INTRA:          -8.283
 INTER:                  -7.912
 INTRA:                  -0.371
 UNBOUND:                -0.530
  Name = CHEMBL419862
  9 active torsions:
  status: ('A' for Active; 'I' for Inactive)
    1  A    between atoms: C_1  and  C_2
    2  A    between atoms: C_2  and  C_3
    3  A    between atoms: C_3  and  C_4
    4  A    between atoms: C_4  and  C_5
    5  A    between atoms: N_7  and  C_8
    6  A    between atoms: C_8  and  C_9
    7  A    between atoms: C_12  and  O_13
    8  A    between atoms: C_14  and  O_15
    9  A    between atoms: O_15  and  C_16
                            x       y       z     vdW  Elec       q    Type
                         _______ _______ _______ _____ _____    ______ ____

>  <TORSDO>
F 7

>  <SCORE>
-5.618

>  <RMSD_LB>
4.396

>  <RMSD_UB>
6.728

$$$$
CHEMBL419862
 OpenBabel10162523453D

 19 19  0  0  0  0  0  0  0  0999 V2000
  136.5970  136.4580  156.2720 C   0  0  0  0  0  0  0  0  0  0  0  0
  136.3980  136.0120  157.5820 C   0  0  0  0  0  3  0  0  0  0  0  0
  135.3550  135.1310  157.8780 C   0  0  0  0  0  3  0  0  0  0  0  0
  134.5050  134.6750  156.8630 C   0  0  0  0  0  0  0  0  0  0  0  0
  134.6990  135.0890  155.5420 C   0  0  0  0  0  0  0  0  0  0  0  0
  135.7500  135.9770  155.2610 C   0  0  0  0  0  3  0  0  0  0  0  0
  133.4910  133.8240  157.2080 O   0  0  0  0  0  0  0  0  0  0  0  0
  133.2970  133.0830  156.6670 H   0  0  0  0  0  0  0  0  0  0  0  0
  133.9810  134.7480  154.4270 O   0  0  0  0  0  0  0  0  0  0  0  0
  133.9520  135.6620  153.3420 C   0  0  0  0  0  1  0  0  0  0  0  0
  137.6980  137.4360  155.9550 C   0  0  0  0  0  2  0  0  0  0  0  0
  138.7470  138.4040  153.9460 C   0  0  0  0  0  0  0  0  0  0  0  0
  139.0220  139.4550  154.5170 O   0  0  0  0  0  0  0  0  0  0  0  0
  138.0870  137.3680  154.5640 N   0  0  0  0  0  0  0  0  0  0  0  0
  137.8730  136.5590  154.0460 H   0  0  0  0  0  0  0  0  0  0  0  0
  139.0650  138.1570  152.4820 C   0  0  0  0  0  2  0  0  0  0  0  0
  137.9310  137.3800  151.8130 C   0  0  0  0  0  2  0  0  0  0  0  0
  139.8130  137.0540  150.1830 C   0  0  0  0  0  1  0  0  0  0  0  0
  138.3340  136.8150  150.4520 C   0  0  0  0  0  2  0  0  0  0  0  0
  1  2  1  0  0  0  0
  2  3  2  0  0  0  0
  4  7  1  0  0  0  0
  4  3  1  0  0  0  0
  5  4  2  0  0  0  0
  6  5  1  0  0  0  0
  6  1  2  0  0  0  0
  8  7  1  0  0  0  0
  9  5  1  0  0  0  0
 10  9  1  0  0  0  0
 11  1  1  0  0  0  0
 12 13  2  0  0  0  0
 12 14  1  0  0  0  0
 14 11  1  0  0  0  0
 15 14  1  0  0  0  0
 16 12  1  0  0  0  0
 17 16  1  0  0  0  0
 18 19  1  0  0  0  0
 19 17  1  0  0  0  0
M  END
>  <MODEL>
5

>  <REMARK>
 VINA RESULT:    -5.582      9.283     11.724
 INTER + INTRA:          -8.233
 INTER:                  -7.768
 INTRA:                  -0.465
 UNBOUND:                -0.530
  Name = CHEMBL419862
  9 active torsions:
  status: ('A' for Active; 'I' for Inactive)
    1  A    between atoms: C_1  and  C_2
    2  A    between atoms: C_2  and  C_3
    3  A    between atoms: C_3  and  C_4
    4  A    between atoms: C_4  and  C_5
    5  A    between atoms: N_7  and  C_8
    6  A    between atoms: C_8  and  C_9
    7  A    between atoms: C_12  and  O_13
    8  A    between atoms: C_14  and  O_15
    9  A    between atoms: O_15  and  C_16
                            x       y       z     vdW  Elec       q    Type
                         _______ _______ _______ _____ _____    ______ ____

>  <TORSDO>
F 7

>  <SCORE>
-5.582

>  <RMSD_LB>
9.283

>  <RMSD_UB>
11.724

$$$$
CHEMBL419862
 OpenBabel10162523453D

 19 19  0  0  0  0  0  0  0  0999 V2000
  147.2790  142.0610  151.3200 C   0  0  0  0  0  0  0  0  0  0  0  0
  148.6440  142.2120  151.5790 C   0  0  0  0  0  3  0  0  0  0  0  0
  149.1610  141.9080  152.8410 C   0  0  0  0  0  3  0  0  0  0  0  0
  148.3200  141.4370  153.8550 C   0  0  0  0  0  0  0  0  0  0  0  0
  146.9560  141.2530  153.6110 C   0  0  0  0  0  0  0  0  0  0  0  0
  146.4510  141.5670  152.3390 C   0  0  0  0  0  3  0  0  0  0  0  0
  148.8740  141.1650  155.0760 O   0  0  0  0  0  0  0  0  0  0  0  0
  149.8020  141.2270  155.1940 H   0  0  0  0  0  0  0  0  0  0  0  0
  145.9900  140.8000  154.4690 O   0  0  0  0  0  0  0  0  0  0  0  0
  145.8450  139.3980  154.6350 C   0  0  0  0  0  1  0  0  0  0  0  0
  146.7100  142.4220  149.9720 C   0  0  0  0  0  2  0  0  0  0  0  0
  145.5660  140.5660  148.8260 C   0  0  0  0  0  0  0  0  0  0  0  0
  146.5900  140.1990  148.2570 O   0  0  0  0  0  0  0  0  0  0  0  0
  145.5260  141.6510  149.6680 N   0  0  0  0  0  0  0  0  0  0  0  0
  144.6680  141.9100  150.0760 H   0  0  0  0  0  0  0  0  0  0  0  0
  144.2240  139.8860  148.6180 C   0  0  0  0  0  2  0  0  0  0  0  0
  143.3170  140.1130  149.8280 C   0  0  0  0  0  2  0  0  0  0  0  0
  141.0280  139.6440  150.7470 C   0  0  0  0  0  1  0  0  0  0  0  0
  141.8380  139.9320  149.4910 C   0  0  0  0  0  2  0  0  0  0  0  0
  1  2  2  0  0  0  0
  1  6  1  0  0  0  0
  2  3  1  0  0  0  0
  3  4  2  0  0  0  0
  4  7  1  0  0  0  0
  5  4  1  0  0  0  0
  5  9  1  0  0  0  0
  6  5  2  0  0  0  0
  7  8  1  0  0  0  0
  9 10  1  0  0  0  0
 11  1  1  0  0  0  0
 12 14  1  0  0  0  0
 13 12  2  0  0  0  0
 14 11  1  0  0  0  0
 14 15  1  0  0  0  0
 16 12  1  0  0  0  0
 16 17  1  0  0  0  0
 19 17  1  0  0  0  0
 19 18  1  0  0  0  0
M  END
>  <MODEL>
6

>  <REMARK>
 VINA RESULT:    -5.577      2.202      5.130
 INTER + INTRA:          -8.227
 INTER:                  -7.696
 INTRA:                  -0.530
 UNBOUND:                -0.530
  Name = CHEMBL419862
  9 active torsions:
  status: ('A' for Active; 'I' for Inactive)
    1  A    between atoms: C_1  and  C_2
    2  A    between atoms: C_2  and  C_3
    3  A    between atoms: C_3  and  C_4
    4  A    between atoms: C_4  and  C_5
    5  A    between atoms: N_7  and  C_8
    6  A    between atoms: C_8  and  C_9
    7  A    between atoms: C_12  and  O_13
    8  A    between atoms: C_14  and  O_15
    9  A    between atoms: O_15  and  C_16
                            x       y       z     vdW  Elec       q    Type
                         _______ _______ _______ _____ _____    ______ ____

>  <TORSDO>
F 7

>  <SCORE>
-5.577

>  <RMSD_LB>
2.202

>  <RMSD_UB>
5.130

$$$$
CHEMBL419862
 OpenBabel10162523453D

 19 19  0  0  0  0  0  0  0  0999 V2000
  136.6160  136.5270  154.9250 C   0  0  0  0  0  0  0  0  0  0  0  0
  135.8800  135.8390  155.8930 C   0  0  0  0  0  3  0  0  0  0  0  0
  134.9760  134.8420  155.5170 C   0  0  0  0  0  3  0  0  0  0  0  0
  134.8070  134.5140  154.1670 C   0  0  0  0  0  0  0  0  0  0  0  0
  135.5500  135.1720  153.1830 C   0  0  0  0  0  0  0  0  0  0  0  0
  136.4530  136.1730  153.5770 C   0  0  0  0  0  3  0  0  0  0  0  0
  133.9000  133.5390  153.8510 O   0  0  0  0  0  0  0  0  0  0  0  0
  133.0320  133.7740  153.5900 H   0  0  0  0  0  0  0  0  0  0  0  0
  135.5260  134.9830  151.8270 O   0  0  0  0  0  0  0  0  0  0  0  0
  134.6960  135.8310  151.0470 C   0  0  0  0  0  1  0  0  0  0  0  0
  137.5650  137.6280  155.3230 C   0  0  0  0  0  2  0  0  0  0  0  0
  139.9030  138.1630  154.7590 C   0  0  0  0  0  0  0  0  0  0  0  0
  140.1880  138.4420  155.9200 O   0  0  0  0  0  0  0  0  0  0  0  0
  138.6440  137.7720  154.3710 N   0  0  0  0  0  0  0  0  0  0  0  0
  138.4710  137.5850  153.4210 H   0  0  0  0  0  0  0  0  0  0  0  0
  140.9020  138.2690  153.6210 C   0  0  0  0  0  2  0  0  0  0  0  0
  140.2860  137.7570  152.3190 C   0  0  0  0  0  2  0  0  0  0  0  0
  142.7290  137.3260  151.9320 C   0  0  0  0  0  1  0  0  0  0  0  0
  141.3430  137.3220  151.3050 C   0  0  0  0  0  2  0  0  0  0  0  0
  1 11  1  0  0  0  0
  1  2  1  0  0  0  0
  3  2  2  0  0  0  0
  4  3  1  0  0  0  0
  5  6  1  0  0  0  0
  5  4  2  0  0  0  0
  6  1  2  0  0  0  0
  7  4  1  0  0  0  0
  8  7  1  0  0  0  0
  9  5  1  0  0  0  0
 10  9  1  0  0  0  0
 12 13  2  0  0  0  0
 14 12  1  0  0  0  0
 14 11  1  0  0  0  0
 15 14  1  0  0  0  0
 16 12  1  0  0  0  0
 17 16  1  0  0  0  0
 19 18  1  0  0  0  0
 19 17  1  0  0  0  0
M  END
>  <MODEL>
7

>  <REMARK>
 VINA RESULT:    -5.573      8.272     10.575
 INTER + INTRA:          -8.221
 INTER:                  -7.738
 INTRA:                  -0.483
 UNBOUND:                -0.530
  Name = CHEMBL419862
  9 active torsions:
  status: ('A' for Active; 'I' for Inactive)
    1  A    between atoms: C_1  and  C_2
    2  A    between atoms: C_2  and  C_3
    3  A    between atoms: C_3  and  C_4
    4  A    between atoms: C_4  and  C_5
    5  A    between atoms: N_7  and  C_8
    6  A    between atoms: C_8  and  C_9
    7  A    between atoms: C_12  and  O_13
    8  A    between atoms: C_14  and  O_15
    9  A    between atoms: O_15  and  C_16
                            x       y       z     vdW  Elec       q    Type
                         _______ _______ _______ _____ _____    ______ ____

>  <TORSDO>
F 7

>  <SCORE>
-5.573

>  <RMSD_LB>
8.272

>  <RMSD_UB>
10.575

$$$$
CHEMBL419862
 OpenBabel10162523453D

 19 19  0  0  0  0  0  0  0  0999 V2000
  146.4660  141.7850  151.5860 C   0  0  0  0  0  0  0  0  0  0  0  0
  147.3460  142.3880  150.6830 C   0  0  0  0  0  3  0  0  0  0  0  0
  148.6850  142.5890  151.0280 C   0  0  0  0  0  3  0  0  0  0  0  0
  149.1630  142.1760  152.2770 C   0  0  0  0  0  0  0  0  0  0  0  0
  148.3060  141.5480  153.1870 C   0  0  0  0  0  0  0  0  0  0  0  0
  146.9630  141.3570  152.8260 C   0  0  0  0  0  3  0  0  0  0  0  0
  150.4780  142.4070  152.5710 O   0  0  0  0  0  0  0  0  0  0  0  0
  150.7310  142.6300  153.4450 H   0  0  0  0  0  0  0  0  0  0  0  0
  148.5920  141.0750  154.4400 O   0  0  0  0  0  0  0  0  0  0  0  0
  148.2930  139.7180  154.7290 C   0  0  0  0  0  1  0  0  0  0  0  0
  145.0130  141.6000  151.2320 C   0  0  0  0  0  2  0  0  0  0  0  0
  143.3550  139.8210  151.6260 C   0  0  0  0  0  0  0  0  0  0  0  0
  142.8950  139.9080  150.4910 O   0  0  0  0  0  0  0  0  0  0  0  0
  144.3780  140.6180  152.0810 N   0  0  0  0  0  0  0  0  0  0  0  0
  144.6880  140.5170  153.0100 H   0  0  0  0  0  0  0  0  0  0  0  0
  142.8060  138.8570  152.6620 C   0  0  0  0  0  2  0  0  0  0  0  0
  143.9370  138.0360  153.2810 C   0  0  0  0  0  2  0  0  0  0  0  0
  146.1450  137.3410  152.3080 C   0  0  0  0  0  1  0  0  0  0  0  0
  144.6370  137.1430  152.2580 C   0  0  0  0  0  2  0  0  0  0  0  0
  1  6  1  0  0  0  0
  2  3  1  0  0  0  0
  2  1  2  0  0  0  0
  3  4  2  0  0  0  0
  4  7  1  0  0  0  0
  4  5  1  0  0  0  0
  5  9  1  0  0  0  0
  6  5  2  0  0  0  0
  7  8  1  0  0  0  0
  9 10  1  0  0  0  0
 11  1  1  0  0  0  0
 11 14  1  0  0  0  0
 12 14  1  0  0  0  0
 12 16  1  0  0  0  0
 13 12  2  0  0  0  0
 14 15  1  0  0  0  0
 16 17  1  0  0  0  0
 19 18  1  0  0  0  0
 19 17  1  0  0  0  0
M  END
>  <MODEL>
8

>  <REMARK>
 VINA RESULT:    -5.565      1.759      4.229
 INTER + INTRA:          -8.210
 INTER:                  -7.561
 INTRA:                  -0.648
 UNBOUND:                -0.530
  Name = CHEMBL419862
  9 active torsions:
  status: ('A' for Active; 'I' for Inactive)
    1  A    between atoms: C_1  and  C_2
    2  A    between atoms: C_2  and  C_3
    3  A    between atoms: C_3  and  C_4
    4  A    between atoms: C_4  and  C_5
    5  A    between atoms: N_7  and  C_8
    6  A    between atoms: C_8  and  C_9
    7  A    between atoms: C_12  and  O_13
    8  A    between atoms: C_14  and  O_15
    9  A    between atoms: O_15  and  C_16
                            x       y       z     vdW  Elec       q    Type
                         _______ _______ _______ _____ _____    ______ ____

>  <TORSDO>
F 7

>  <SCORE>
-5.565

>  <RMSD_LB>
1.759

>  <RMSD_UB>
4.229

$$$$
CHEMBL419862
 OpenBabel10162523453D

 19 19  0  0  0  0  0  0  0  0999 V2000
  139.6020  138.0820  152.9560 C   0  0  0  0  0  0  0  0  0  0  0  0
  140.8830  137.8270  152.4570 C   0  0  0  0  0  3  0  0  0  0  0  0
  141.0490  137.2850  151.1800 C   0  0  0  0  0  3  0  0  0  0  0  0
  139.9350  137.0030  150.3810 C   0  0  0  0  0  0  0  0  0  0  0  0
  138.6460  137.2730  150.8490 C   0  0  0  0  0  0  0  0  0  0  0  0
  138.4950  137.8140  152.1360 C   0  0  0  0  0  3  0  0  0  0  0  0
  140.1510  136.4620  149.1440 O   0  0  0  0  0  0  0  0  0  0  0  0
  140.7800  135.7760  149.0360 H   0  0  0  0  0  0  0  0  0  0  0  0
  137.4490  137.0720  150.2150 O   0  0  0  0  0  0  0  0  0  0  0  0
  137.0590  137.9960  149.2110 C   0  0  0  0  0  1  0  0  0  0  0  0
  139.4170  138.6320  154.3470 C   0  0  0  0  0  2  0  0  0  0  0  0
  137.4400  138.0820  155.7100 C   0  0  0  0  0  0  0  0  0  0  0  0
  136.9330  139.1870  155.5390 O   0  0  0  0  0  0  0  0  0  0  0  0
  138.6570  137.7270  155.1810 N   0  0  0  0  0  0  0  0  0  0  0  0
  139.0220  136.8330  155.3730 H   0  0  0  0  0  0  0  0  0  0  0  0
  136.7950  137.0080  156.5680 C   0  0  0  0  0  2  0  0  0  0  0  0
  136.6350  135.7130  155.7720 C   0  0  0  0  0  2  0  0  0  0  0  0
  135.9750  135.3820  153.3720 C   0  0  0  0  0  1  0  0  0  0  0  0
  135.4950  135.7870  154.7580 C   0  0  0  0  0  2  0  0  0  0  0  0
  1 11  1  0  0  0  0
  2  1  1  0  0  0  0
  3  2  2  0  0  0  0
  4  5  2  0  0  0  0
  4  3  1  0  0  0  0
  5  6  1  0  0  0  0
  6  1  2  0  0  0  0
  7  4  1  0  0  0  0
  8  7  1  0  0  0  0
  9  5  1  0  0  0  0
 10  9  1  0  0  0  0
 11 14  1  0  0  0  0
 12 16  1  0  0  0  0
 13 12  2  0  0  0  0
 14 15  1  0  0  0  0
 14 12  1  0  0  0  0
 17 16  1  0  0  0  0
 18 19  1  0  0  0  0
 19 17  1  0  0  0  0
M  END
>  <MODEL>
9

>  <REMARK>
 VINA RESULT:    -5.562      7.042      8.952
 INTER + INTRA:          -8.206
 INTER:                  -7.458
 INTRA:                  -0.747
 UNBOUND:                -0.530
  Name = CHEMBL419862
  9 active torsions:
  status: ('A' for Active; 'I' for Inactive)
    1  A    between atoms: C_1  and  C_2
    2  A    between atoms: C_2  and  C_3
    3  A    between atoms: C_3  and  C_4
    4  A    between atoms: C_4  and  C_5
    5  A    between atoms: N_7  and  C_8
    6  A    between atoms: C_8  and  C_9
    7  A    between atoms: C_12  and  O_13
    8  A    between atoms: C_14  and  O_15
    9  A    between atoms: O_15  and  C_16
                            x       y       z     vdW  Elec       q    Type
                         _______ _______ _______ _____ _____    ______ ____

>  <TORSDO>
F 7

>  <SCORE>
-5.562

>  <RMSD_LB>
7.042

>  <RMSD_UB>
8.952

$$$$
