CHEMBL4552042
 OpenBabel10172500283D

 26 27  0  0  0  0  0  0  0  0999 V2000
  135.2680  133.1530  145.5500 N   0  0  0  0  0  0  0  0  0  0  0  0
  135.9560  132.0200  145.9250 C   0  0  0  0  0  0  0  0  0  0  0  0
  135.7930  131.4680  147.0100 O   0  0  0  0  0  0  0  0  0  0  0  0
  135.4140  133.5420  144.6580 H   0  0  0  0  0  0  0  0  0  0  0  0
  134.3310  133.7740  146.4680 C   0  0  0  0  0  2  0  0  0  0  0  0
  134.4510  135.2980  146.5120 C   0  0  0  0  0  2  0  0  0  0  0  0
  137.1020  136.6080  149.6880 C   0  0  0  0  0  0  0  0  0  0  0  0
  136.8010  135.2510  149.5160 C   0  0  0  0  0  3  0  0  0  0  0  0
  135.9500  134.8250  148.4890 C   0  0  0  0  0  3  0  0  0  0  0  0
  135.3690  135.7510  147.6200 C   0  0  0  0  0  0  0  0  0  0  0  0
  135.6790  137.1080  147.7820 C   0  0  0  0  0  3  0  0  0  0  0  0
  136.5490  137.5420  148.7960 C   0  0  0  0  0  0  0  0  0  0  0  0
  137.2820  136.9830  152.0360 C   0  0  0  0  0  1  0  0  0  0  0  0
  137.8490  137.0800  150.7350 O   0  0  0  0  0  0  0  0  0  0  0  0
  136.7270  138.9030  148.8110 O   0  0  0  0  0  0  0  0  0  0  0  0
  137.2880  139.4810  147.6380 C   0  0  0  0  0  1  0  0  0  0  0  0
  136.9160  131.4710  144.8880 C   0  0  0  0  0  2  0  0  0  0  0  0
  136.4170  131.6940  143.4640 C   0  0  0  0  0  2  0  0  0  0  0  0
  137.5620  132.0210  142.5000 C   0  0  0  0  0  2  0  0  0  0  0  0
  137.2910  133.3490  141.7880 C   0  0  0  0  0  2  0  0  0  0  0  0
  137.3400  134.5430  142.7070 C   0  0  0  0  0  0  0  0  0  0  0  0
  136.3130  135.4970  142.6940 C   0  0  0  0  0  3  0  0  0  0  0  0
  136.3310  136.5670  143.5910 C   0  0  0  0  0  3  0  0  0  0  0  0
  137.3790  136.6990  144.5010 C   0  0  0  0  0  3  0  0  0  0  0  0
  138.4160  135.7690  144.5060 C   0  0  0  0  0  3  0  0  0  0  0  0
  138.4000  134.6990  143.6100 C   0  0  0  0  0  3  0  0  0  0  0  0
  1  2  1  0  0  0  0
  1  5  1  0  0  0  0
  2  3  2  0  0  0  0
  4  1  1  0  0  0  0
  5  6  1  0  0  0  0
  6 10  1  0  0  0  0
  7 14  1  0  0  0  0
  8  7  1  0  0  0  0
  9  8  2  0  0  0  0
 10 11  2  0  0  0  0
 10  9  1  0  0  0  0
 11 12  1  0  0  0  0
 12 15  1  0  0  0  0
 12  7  2  0  0  0  0
 14 13  1  0  0  0  0
 16 15  1  0  0  0  0
 17  2  1  0  0  0  0
 18 17  1  0  0  0  0
 19 18  1  0  0  0  0
 20 19  1  0  0  0  0
 20 21  1  0  0  0  0
 21 26  1  0  0  0  0
 22 21  2  0  0  0  0
 22 23  1  0  0  0  0
 23 24  2  0  0  0  0
 24 25  1  0  0  0  0
 26 25  2  0  0  0  0
M  END
>  <MODEL>
1

>  <REMARK>
 VINA RESULT:    -6.052      0.000      0.000
 INTER + INTRA:         -10.627
 INTER:                  -8.571
 INTRA:                  -2.055
 UNBOUND:                -1.037
  Name = CHEMBL4552042
  12 active torsions:
  status: ('A' for Active; 'I' for Inactive)
    1  A    between atoms: C_1  and  O_2
    2  A    between atoms: O_2  and  C_3
    3  A    between atoms: C_6  and  C_7
    4  A    between atoms: C_7  and  C_8
    5  A    between atoms: C_8  and  N_9
    6  A    between atoms: C_10  and  C_12
    7  A    between atoms: C_12  and  C_13
    8  A    between atoms: C_13  and  C_14
    9  A    between atoms: C_14  and  C_15
   10  A    between atoms: C_15  and  C_16
   11  A    between atoms: C_23  and  O_24
   12  A    between atoms: O_24  and  C_25
                            x       y       z     vdW  Elec       q    Type
                         _______ _______ _______ _____ _____    ______ ____

>  <TORSDO>
F 10

>  <SCORE>
-6.052

>  <RMSD_LB>
0.000

>  <RMSD_UB>
0.000

$$$$
CHEMBL4552042
 OpenBabel10172500283D

 26 27  0  0  0  0  0  0  0  0999 V2000
  134.3060  138.5080  142.9570 N   0  0  0  0  0  0  0  0  0  0  0  0
  134.9240  139.0460  141.8500 C   0  0  0  0  0  0  0  0  0  0  0  0
  135.3240  140.2080  141.8060 O   0  0  0  0  0  0  0  0  0  0  0  0
  134.0290  137.5640  142.9540 H   0  0  0  0  0  0  0  0  0  0  0  0
  134.0630  139.3310  144.1280 C   0  0  0  0  0  2  0  0  0  0  0  0
  135.0180  139.0310  145.2840 C   0  0  0  0  0  2  0  0  0  0  0  0
  133.4970  135.8670  147.8350 C   0  0  0  0  0  0  0  0  0  0  0  0
  132.6300  136.6320  147.0430 C   0  0  0  0  0  3  0  0  0  0  0  0
  133.1190  137.6490  146.2160 C   0  0  0  0  0  3  0  0  0  0  0  0
  134.4860  137.9350  146.1740 C   0  0  0  0  0  0  0  0  0  0  0  0
  135.3550  137.1630  146.9550 C   0  0  0  0  0  3  0  0  0  0  0  0
  134.8760  136.1250  147.7720 C   0  0  0  0  0  0  0  0  0  0  0  0
  132.5820  133.6960  148.2020 C   0  0  0  0  0  1  0  0  0  0  0  0
  133.0560  134.9290  148.7310 O   0  0  0  0  0  0  0  0  0  0  0  0
  135.8680  135.4860  148.4730 O   0  0  0  0  0  0  0  0  0  0  0  0
  136.2840  134.2210  147.9690 C   0  0  0  0  0  1  0  0  0  0  0  0
  135.1110  138.0950  140.6850 C   0  0  0  0  0  2  0  0  0  0  0  0
  135.2270  136.6430  141.1370 C   0  0  0  0  0  2  0  0  0  0  0  0
  136.6350  136.3100  141.6420 C   0  0  0  0  0  2  0  0  0  0  0  0
  137.0740  134.9400  141.1190 C   0  0  0  0  0  2  0  0  0  0  0  0
  136.9540  133.8410  142.1440 C   0  0  0  0  0  0  0  0  0  0  0  0
  137.4970  132.5720  141.8980 C   0  0  0  0  0  3  0  0  0  0  0  0
  137.4380  131.5760  142.8760 C   0  0  0  0  0  3  0  0  0  0  0  0
  136.8280  131.8360  144.1020 C   0  0  0  0  0  3  0  0  0  0  0  0
  136.2640  133.0860  144.3460 C   0  0  0  0  0  3  0  0  0  0  0  0
  136.3210  134.0820  143.3700 C   0  0  0  0  0  3  0  0  0  0  0  0
  1  5  1  0  0  0  0
  2  1  1  0  0  0  0
  3  2  2  0  0  0  0
  4  1  1  0  0  0  0
  5  6  1  0  0  0  0
  6 10  1  0  0  0  0
  7 14  1  0  0  0  0
  8  7  2  0  0  0  0
  9  8  1  0  0  0  0
 10  9  2  0  0  0  0
 10 11  1  0  0  0  0
 11 12  2  0  0  0  0
 12  7  1  0  0  0  0
 12 15  1  0  0  0  0
 13 14  1  0  0  0  0
 16 15  1  0  0  0  0
 17 18  1  0  0  0  0
 17  2  1  0  0  0  0
 18 19  1  0  0  0  0
 20 19  1  0  0  0  0
 20 21  1  0  0  0  0
 21 26  1  0  0  0  0
 22 21  2  0  0  0  0
 22 23  1  0  0  0  0
 23 24  2  0  0  0  0
 24 25  1  0  0  0  0
 26 25  2  0  0  0  0
M  END
>  <MODEL>
2

>  <REMARK>
 VINA RESULT:    -5.672      2.929      5.121
 INTER + INTRA:         -10.026
 INTER:                  -8.890
 INTRA:                  -1.136
 UNBOUND:                -1.037
  Name = CHEMBL4552042
  12 active torsions:
  status: ('A' for Active; 'I' for Inactive)
    1  A    between atoms: C_1  and  O_2
    2  A    between atoms: O_2  and  C_3
    3  A    between atoms: C_6  and  C_7
    4  A    between atoms: C_7  and  C_8
    5  A    between atoms: C_8  and  N_9
    6  A    between atoms: C_10  and  C_12
    7  A    between atoms: C_12  and  C_13
    8  A    between atoms: C_13  and  C_14
    9  A    between atoms: C_14  and  C_15
   10  A    between atoms: C_15  and  C_16
   11  A    between atoms: C_23  and  O_24
   12  A    between atoms: O_24  and  C_25
                            x       y       z     vdW  Elec       q    Type
                         _______ _______ _______ _____ _____    ______ ____

>  <TORSDO>
F 10

>  <SCORE>
-5.672

>  <RMSD_LB>
2.929

>  <RMSD_UB>
5.121

$$$$
CHEMBL4552042
 OpenBabel10172500283D

 26 27  0  0  0  0  0  0  0  0999 V2000
  136.6110  159.0630  150.5140 N   0  0  0  0  0  0  0  0  0  0  0  0
  137.2890  159.7640  151.4870 C   0  0  0  0  0  0  0  0  0  0  0  0
  136.7590  160.1470  152.5270 O   0  0  0  0  0  0  0  0  0  0  0  0
  137.0870  158.7540  149.7110 H   0  0  0  0  0  0  0  0  0  0  0  0
  135.1960  158.7820  150.6720 C   0  0  0  0  0  2  0  0  0  0  0  0
  134.6910  157.6860  149.7320 C   0  0  0  0  0  2  0  0  0  0  0  0
  132.4230  154.6740  151.8810 C   0  0  0  0  0  0  0  0  0  0  0  0
  132.8380  154.4560  150.5600 C   0  0  0  0  0  3  0  0  0  0  0  0
  133.5740  155.4240  149.8670 C   0  0  0  0  0  3  0  0  0  0  0  0
  133.8980  156.6390  150.4750 C   0  0  0  0  0  0  0  0  0  0  0  0
  133.4960  156.8530  151.8000 C   0  0  0  0  0  3  0  0  0  0  0  0
  132.7760  155.8790  152.5100 C   0  0  0  0  0  0  0  0  0  0  0  0
  130.2200  153.8730  152.3200 C   0  0  0  0  0  1  0  0  0  0  0  0
  131.6200  153.7990  152.5640 O   0  0  0  0  0  0  0  0  0  0  0  0
  132.4570  156.2650  153.7880 O   0  0  0  0  0  0  0  0  0  0  0  0
  132.0540  157.6200  153.9580 C   0  0  0  0  0  1  0  0  0  0  0  0
  138.7580  160.0080  151.2050 C   0  0  0  0  0  2  0  0  0  0  0  0
  139.0420  161.4620  150.8400 C   0  0  0  0  0  2  0  0  0  0  0  0
  140.2560  162.0170  151.5920 C   0  0  0  0  0  2  0  0  0  0  0  0
  141.3960  160.9950  151.5840 C   0  0  0  0  0  2  0  0  0  0  0  0
  142.7630  161.6230  151.5020 C   0  0  0  0  0  0  0  0  0  0  0  0
  143.6590  161.2550  150.4880 C   0  0  0  0  0  3  0  0  0  0  0  0
  144.9000  161.8850  150.3780 C   0  0  0  0  0  3  0  0  0  0  0  0
  145.2620  162.8800  151.2850 C   0  0  0  0  0  3  0  0  0  0  0  0
  144.3880  163.2360  152.3110 C   0  0  0  0  0  3  0  0  0  0  0  0
  143.1480  162.6070  152.4220 C   0  0  0  0  0  3  0  0  0  0  0  0
  1  5  1  0  0  0  0
  1  2  1  0  0  0  0
  2  3  2  0  0  0  0
  4  1  1  0  0  0  0
  6 10  1  0  0  0  0
  6  5  1  0  0  0  0
  7 12  1  0  0  0  0
  7 14  1  0  0  0  0
  8  7  2  0  0  0  0
  9 10  2  0  0  0  0
  9  8  1  0  0  0  0
 10 11  1  0  0  0  0
 11 12  2  0  0  0  0
 12 15  1  0  0  0  0
 13 14  1  0  0  0  0
 15 16  1  0  0  0  0
 17  2  1  0  0  0  0
 18 17  1  0  0  0  0
 18 19  1  0  0  0  0
 20 19  1  0  0  0  0
 21 20  1  0  0  0  0
 21 26  1  0  0  0  0
 22 21  2  0  0  0  0
 23 22  1  0  0  0  0
 23 24  2  0  0  0  0
 24 25  1  0  0  0  0
 25 26  2  0  0  0  0
M  END
>  <MODEL>
3

>  <REMARK>
 VINA RESULT:    -5.452     20.782     25.198
 INTER + INTRA:          -9.677
 INTER:                  -9.005
 INTRA:                  -0.672
 UNBOUND:                -1.037
  Name = CHEMBL4552042
  12 active torsions:
  status: ('A' for Active; 'I' for Inactive)
    1  A    between atoms: C_1  and  O_2
    2  A    between atoms: O_2  and  C_3
    3  A    between atoms: C_6  and  C_7
    4  A    between atoms: C_7  and  C_8
    5  A    between atoms: C_8  and  N_9
    6  A    between atoms: C_10  and  C_12
    7  A    between atoms: C_12  and  C_13
    8  A    between atoms: C_13  and  C_14
    9  A    between atoms: C_14  and  C_15
   10  A    between atoms: C_15  and  C_16
   11  A    between atoms: C_23  and  O_24
   12  A    between atoms: O_24  and  C_25
                            x       y       z     vdW  Elec       q    Type
                         _______ _______ _______ _____ _____    ______ ____

>  <TORSDO>
F 10

>  <SCORE>
-5.452

>  <RMSD_LB>
20.782

>  <RMSD_UB>
25.198

$$$$
CHEMBL4552042
 OpenBabel10172500283D

 26 27  0  0  0  0  0  0  0  0999 V2000
  135.1930  138.7410  143.3780 N   0  0  0  0  0  0  0  0  0  0  0  0
  135.4870  139.2010  142.1130 C   0  0  0  0  0  0  0  0  0  0  0  0
  135.8300  140.3590  141.8850 O   0  0  0  0  0  0  0  0  0  0  0  0
  134.9500  137.7970  143.5120 H   0  0  0  0  0  0  0  0  0  0  0  0
  135.2420  139.6460  144.5110 C   0  0  0  0  0  2  0  0  0  0  0  0
  136.5700  139.5950  145.2660 C   0  0  0  0  0  2  0  0  0  0  0  0
  137.3450  135.6480  146.8960 C   0  0  0  0  0  0  0  0  0  0  0  0
  138.0930  136.1410  145.8190 C   0  0  0  0  0  3  0  0  0  0  0  0
  137.8480  137.4160  145.2950 C   0  0  0  0  0  3  0  0  0  0  0  0
  136.8380  138.2200  145.8280 C   0  0  0  0  0  0  0  0  0  0  0  0
  136.0980  137.7340  146.9130 C   0  0  0  0  0  3  0  0  0  0  0  0
  136.3510  136.4650  147.4600 C   0  0  0  0  0  0  0  0  0  0  0  0
  138.6290  134.0980  148.1740 C   0  0  0  0  0  1  0  0  0  0  0  0
  137.4830  134.3730  147.3780 O   0  0  0  0  0  0  0  0  0  0  0  0
  135.5230  136.1520  148.5090 O   0  0  0  0  0  0  0  0  0  0  0  0
  134.2360  136.7600  148.5020 C   0  0  0  0  0  1  0  0  0  0  0  0
  135.3890  138.1680  141.0080 C   0  0  0  0  0  2  0  0  0  0  0  0
  135.3630  136.7420  141.5510 C   0  0  0  0  0  2  0  0  0  0  0  0
  136.7620  136.2470  141.9320 C   0  0  0  0  0  2  0  0  0  0  0  0
  136.9940  134.8390  141.3770 C   0  0  0  0  0  2  0  0  0  0  0  0
  136.8180  133.7520  142.4070 C   0  0  0  0  0  0  0  0  0  0  0  0
  137.4060  132.4930  142.2240 C   0  0  0  0  0  3  0  0  0  0  0  0
  137.2920  131.5100  143.2100 C   0  0  0  0  0  3  0  0  0  0  0  0
  136.5830  131.7740  144.3810 C   0  0  0  0  0  3  0  0  0  0  0  0
  135.9750  133.0140  144.5610 C   0  0  0  0  0  3  0  0  0  0  0  0
  136.0870  133.9970  143.5770 C   0  0  0  0  0  3  0  0  0  0  0  0
  1  4  1  0  0  0  0
  1  5  1  0  0  0  0
  2  1  1  0  0  0  0
  3  2  2  0  0  0  0
  5  6  1  0  0  0  0
  6 10  1  0  0  0  0
  7 14  1  0  0  0  0
  7 12  1  0  0  0  0
  8  7  2  0  0  0  0
  9  8  1  0  0  0  0
  9 10  2  0  0  0  0
 10 11  1  0  0  0  0
 11 12  2  0  0  0  0
 12 15  1  0  0  0  0
 14 13  1  0  0  0  0
 16 15  1  0  0  0  0
 17 18  1  0  0  0  0
 17  2  1  0  0  0  0
 18 19  1  0  0  0  0
 20 19  1  0  0  0  0
 20 21  1  0  0  0  0
 21 26  1  0  0  0  0
 22 21  2  0  0  0  0
 22 23  1  0  0  0  0
 23 24  2  0  0  0  0
 24 25  1  0  0  0  0
 26 25  2  0  0  0  0
M  END
>  <MODEL>
4

>  <REMARK>
 VINA RESULT:    -5.167      2.710      4.895
 INTER + INTRA:          -9.225
 INTER:                  -7.584
 INTRA:                  -1.642
 UNBOUND:                -1.037
  Name = CHEMBL4552042
  12 active torsions:
  status: ('A' for Active; 'I' for Inactive)
    1  A    between atoms: C_1  and  O_2
    2  A    between atoms: O_2  and  C_3
    3  A    between atoms: C_6  and  C_7
    4  A    between atoms: C_7  and  C_8
    5  A    between atoms: C_8  and  N_9
    6  A    between atoms: C_10  and  C_12
    7  A    between atoms: C_12  and  C_13
    8  A    between atoms: C_13  and  C_14
    9  A    between atoms: C_14  and  C_15
   10  A    between atoms: C_15  and  C_16
   11  A    between atoms: C_23  and  O_24
   12  A    between atoms: O_24  and  C_25
                            x       y       z     vdW  Elec       q    Type
                         _______ _______ _______ _____ _____    ______ ____

>  <TORSDO>
F 10

>  <SCORE>
-5.167

>  <RMSD_LB>
2.710

>  <RMSD_UB>
4.895

$$$$
CHEMBL4552042
 OpenBabel10172500283D

 26 27  0  0  0  0  0  0  0  0999 V2000
  134.9630  157.9550  150.3340 N   0  0  0  0  0  0  0  0  0  0  0  0
  134.7310  156.7440  149.7200 C   0  0  0  0  0  0  0  0  0  0  0  0
  135.2170  156.4430  148.6310 O   0  0  0  0  0  0  0  0  0  0  0  0
  134.5740  158.1370  151.2200 H   0  0  0  0  0  0  0  0  0  0  0  0
  135.7780  158.9610  149.6790 C   0  0  0  0  0  2  0  0  0  0  0  0
  135.0970  159.5900  148.4630 C   0  0  0  0  0  2  0  0  0  0  0  0
  137.9530  160.4310  145.3060 C   0  0  0  0  0  0  0  0  0  0  0  0
  137.7970  161.3080  146.3870 C   0  0  0  0  0  3  0  0  0  0  0  0
  136.8800  161.0370  147.4090 C   0  0  0  0  0  3  0  0  0  0  0  0
  136.0870  159.8870  147.3640 C   0  0  0  0  0  0  0  0  0  0  0  0
  136.2510  159.0030  146.2910 C   0  0  0  0  0  3  0  0  0  0  0  0
  137.1840  159.2560  145.2720 C   0  0  0  0  0  0  0  0  0  0  0  0
  139.4900  161.9270  144.2630 C   0  0  0  0  0  1  0  0  0  0  0  0
  138.7650  160.7030  144.2370 O   0  0  0  0  0  0  0  0  0  0  0  0
  137.1990  158.2890  144.2980 O   0  0  0  0  0  0  0  0  0  0  0  0
  136.0190  158.1640  143.5120 C   0  0  0  0  0  1  0  0  0  0  0  0
  133.8540  155.7800  150.4940 C   0  0  0  0  0  2  0  0  0  0  0  0
  133.1100  154.8140  149.5780 C   0  0  0  0  0  2  0  0  0  0  0  0
  131.6030  155.0890  149.5560 C   0  0  0  0  0  2  0  0  0  0  0  0
  131.1360  155.5870  150.9270 C   0  0  0  0  0  2  0  0  0  0  0  0
  130.5630  154.4970  151.7970 C   0  0  0  0  0  0  0  0  0  0  0  0
  129.3560  153.8700  151.4560 C   0  0  0  0  0  3  0  0  0  0  0  0
  128.8620  152.8180  152.2310 C   0  0  0  0  0  3  0  0  0  0  0  0
  129.5640  152.3900  153.3570 C   0  0  0  0  0  3  0  0  0  0  0  0
  130.7520  153.0220  153.7170 C   0  0  0  0  0  3  0  0  0  0  0  0
  131.2470  154.0740  152.9440 C   0  0  0  0  0  3  0  0  0  0  0  0
  1  4  1  0  0  0  0
  2  1  1  0  0  0  0
  2 17  1  0  0  0  0
  3  2  2  0  0  0  0
  5  1  1  0  0  0  0
  6  5  1  0  0  0  0
  7  8  1  0  0  0  0
  8  9  2  0  0  0  0
 10  9  1  0  0  0  0
 10  6  1  0  0  0  0
 11 10  2  0  0  0  0
 12  7  2  0  0  0  0
 12 11  1  0  0  0  0
 14 13  1  0  0  0  0
 14  7  1  0  0  0  0
 15 12  1  0  0  0  0
 16 15  1  0  0  0  0
 18 17  1  0  0  0  0
 19 18  1  0  0  0  0
 19 20  1  0  0  0  0
 20 21  1  0  0  0  0
 21 26  1  0  0  0  0
 22 21  2  0  0  0  0
 22 23  1  0  0  0  0
 23 24  2  0  0  0  0
 24 25  1  0  0  0  0
 26 25  2  0  0  0  0
M  END
>  <MODEL>
5

>  <REMARK>
 VINA RESULT:    -5.149     20.595     23.558
 INTER + INTRA:          -9.196
 INTER:                  -8.377
 INTRA:                  -0.819
 UNBOUND:                -1.037
  Name = CHEMBL4552042
  12 active torsions:
  status: ('A' for Active; 'I' for Inactive)
    1  A    between atoms: C_1  and  O_2
    2  A    between atoms: O_2  and  C_3
    3  A    between atoms: C_6  and  C_7
    4  A    between atoms: C_7  and  C_8
    5  A    between atoms: C_8  and  N_9
    6  A    between atoms: C_10  and  C_12
    7  A    between atoms: C_12  and  C_13
    8  A    between atoms: C_13  and  C_14
    9  A    between atoms: C_14  and  C_15
   10  A    between atoms: C_15  and  C_16
   11  A    between atoms: C_23  and  O_24
   12  A    between atoms: O_24  and  C_25
                            x       y       z     vdW  Elec       q    Type
                         _______ _______ _______ _____ _____    ______ ____

>  <TORSDO>
F 10

>  <SCORE>
-5.149

>  <RMSD_LB>
20.595

>  <RMSD_UB>
23.558

$$$$
CHEMBL4552042
 OpenBabel10172500283D

 26 27  0  0  0  0  0  0  0  0999 V2000
  136.3280  159.9350  152.6940 N   0  0  0  0  0  0  0  0  0  0  0  0
  137.2720  160.8710  152.3340 C   0  0  0  0  0  0  0  0  0  0  0  0
  137.1700  162.0640  152.6090 O   0  0  0  0  0  0  0  0  0  0  0  0
  136.4690  158.9860  152.4750 H   0  0  0  0  0  0  0  0  0  0  0  0
  135.1260  160.3450  153.3970 C   0  0  0  0  0  2  0  0  0  0  0  0
  135.2710  160.2960  154.9180 C   0  0  0  0  0  2  0  0  0  0  0  0
  131.6750  158.7630  156.8050 C   0  0  0  0  0  0  0  0  0  0  0  0
  132.6030  159.5210  157.5320 C   0  0  0  0  0  3  0  0  0  0  0  0
  133.7610  160.0200  156.9250 C   0  0  0  0  0  3  0  0  0  0  0  0
  134.0240  159.7600  155.5780 C   0  0  0  0  0  0  0  0  0  0  0  0
  133.0920  159.0140  154.8460 C   0  0  0  0  0  3  0  0  0  0  0  0
  131.9170  158.5270  155.4410 C   0  0  0  0  0  0  0  0  0  0  0  0
  130.3990  158.3590  158.7780 C   0  0  0  0  0  1  0  0  0  0  0  0
  130.5810  158.1740  157.3790 O   0  0  0  0  0  0  0  0  0  0  0  0
  131.1280  157.8090  154.5770 O   0  0  0  0  0  0  0  0  0  0  0  0
  131.4870  156.4460  154.3770 C   0  0  0  0  0  1  0  0  0  0  0  0
  138.4760  160.3250  151.5930 C   0  0  0  0  0  2  0  0  0  0  0  0
  139.1830  161.3980  150.7700 C   0  0  0  0  0  2  0  0  0  0  0  0
  140.4110  161.9610  151.4950 C   0  0  0  0  0  2  0  0  0  0  0  0
  141.5900  160.9930  151.3690 C   0  0  0  0  0  2  0  0  0  0  0  0
  142.9330  161.6740  151.4180 C   0  0  0  0  0  0  0  0  0  0  0  0
  143.9550  161.3050  150.5320 C   0  0  0  0  0  3  0  0  0  0  0  0
  145.1760  161.9830  150.5390 C   0  0  0  0  0  3  0  0  0  0  0  0
  145.3910  163.0270  151.4380 C   0  0  0  0  0  3  0  0  0  0  0  0
  144.3900  163.3850  152.3380 C   0  0  0  0  0  3  0  0  0  0  0  0
  143.1690  162.7090  152.3330 C   0  0  0  0  0  3  0  0  0  0  0  0
  1  5  1  0  0  0  0
  2  3  2  0  0  0  0
  2  1  1  0  0  0  0
  4  1  1  0  0  0  0
  5  6  1  0  0  0  0
  6 10  1  0  0  0  0
  7 14  1  0  0  0  0
  7  8  1  0  0  0  0
  9  8  2  0  0  0  0
 10  9  1  0  0  0  0
 11 12  1  0  0  0  0
 11 10  2  0  0  0  0
 12  7  2  0  0  0  0
 14 13  1  0  0  0  0
 15 12  1  0  0  0  0
 16 15  1  0  0  0  0
 17  2  1  0  0  0  0
 18 19  1  0  0  0  0
 18 17  1  0  0  0  0
 20 21  1  0  0  0  0
 20 19  1  0  0  0  0
 21 26  1  0  0  0  0
 22 23  1  0  0  0  0
 22 21  2  0  0  0  0
 23 24  2  0  0  0  0
 24 25  1  0  0  0  0
 26 25  2  0  0  0  0
M  END
>  <MODEL>
6

>  <REMARK>
 VINA RESULT:    -4.817     23.961     26.993
 INTER + INTRA:          -8.671
 INTER:                  -8.045
 INTRA:                  -0.625
 UNBOUND:                -1.037
  Name = CHEMBL4552042
  12 active torsions:
  status: ('A' for Active; 'I' for Inactive)
    1  A    between atoms: C_1  and  O_2
    2  A    between atoms: O_2  and  C_3
    3  A    between atoms: C_6  and  C_7
    4  A    between atoms: C_7  and  C_8
    5  A    between atoms: C_8  and  N_9
    6  A    between atoms: C_10  and  C_12
    7  A    between atoms: C_12  and  C_13
    8  A    between atoms: C_13  and  C_14
    9  A    between atoms: C_14  and  C_15
   10  A    between atoms: C_15  and  C_16
   11  A    between atoms: C_23  and  O_24
   12  A    between atoms: O_24  and  C_25
                            x       y       z     vdW  Elec       q    Type
                         _______ _______ _______ _____ _____    ______ ____

>  <TORSDO>
F 10

>  <SCORE>
-4.817

>  <RMSD_LB>
23.961

>  <RMSD_UB>
26.993

$$$$
CHEMBL4552042
 OpenBabel10172500283D

 26 27  0  0  0  0  0  0  0  0999 V2000
  134.9110  157.5490  150.1900 N   0  0  0  0  0  0  0  0  0  0  0  0
  133.9400  158.4130  150.6450 C   0  0  0  0  0  0  0  0  0  0  0  0
  133.5440  159.3780  149.9940 O   0  0  0  0  0  0  0  0  0  0  0  0
  135.1740  156.7750  150.7380 H   0  0  0  0  0  0  0  0  0  0  0  0
  135.5490  157.7800  148.9070 C   0  0  0  0  0  2  0  0  0  0  0  0
  134.9660  156.9220  147.7830 C   0  0  0  0  0  2  0  0  0  0  0  0
  135.4740  158.8260  143.9160 C   0  0  0  0  0  0  0  0  0  0  0  0
  134.2400  158.2800  144.2920 C   0  0  0  0  0  3  0  0  0  0  0  0
  134.0720  157.6700  145.5410 C   0  0  0  0  0  3  0  0  0  0  0  0
  135.1410  157.5790  146.4360 C   0  0  0  0  0  0  0  0  0  0  0  0
  136.3720  158.1370  146.0660 C   0  0  0  0  0  3  0  0  0  0  0  0
  136.5440  158.7700  144.8240 C   0  0  0  0  0  0  0  0  0  0  0  0
  135.1930  160.6410  142.3950 C   0  0  0  0  0  1  0  0  0  0  0  0
  135.7110  159.3450  142.6700 O   0  0  0  0  0  0  0  0  0  0  0  0
  137.8170  159.2450  144.6300 O   0  0  0  0  0  0  0  0  0  0  0  0
  138.0670  160.5790  145.0610 C   0  0  0  0  0  1  0  0  0  0  0  0
  133.3580  158.0780  152.0040 C   0  0  0  0  0  2  0  0  0  0  0  0
  133.0510  156.5900  152.1500 C   0  0  0  0  0  2  0  0  0  0  0  0
  132.1880  156.3010  153.3820 C   0  0  0  0  0  2  0  0  0  0  0  0
  132.3310  154.8340  153.7970 C   0  0  0  0  0  2  0  0  0  0  0  0
  131.0150  154.1660  154.1010 C   0  0  0  0  0  0  0  0  0  0  0  0
  130.6680  152.9560  153.4840 C   0  0  0  0  0  3  0  0  0  0  0  0
  129.4760  152.3090  153.8170 C   0  0  0  0  0  3  0  0  0  0  0  0
  128.6170  152.8690  154.7610 C   0  0  0  0  0  3  0  0  0  0  0  0
  128.9410  154.0830  155.3620 C   0  0  0  0  0  3  0  0  0  0  0  0
  130.1320  154.7310  155.0300 C   0  0  0  0  0  3  0  0  0  0  0  0
  1  2  1  0  0  0  0
  1  4  1  0  0  0  0
  2 17  1  0  0  0  0
  3  2  2  0  0  0  0
  5  1  1  0  0  0  0
  6  5  1  0  0  0  0
  7  8  2  0  0  0  0
  7 12  1  0  0  0  0
  8  9  1  0  0  0  0
  9 10  2  0  0  0  0
 10  6  1  0  0  0  0
 11 10  1  0  0  0  0
 12 11  2  0  0  0  0
 13 14  1  0  0  0  0
 14  7  1  0  0  0  0
 15 12  1  0  0  0  0
 15 16  1  0  0  0  0
 17 18  1  0  0  0  0
 18 19  1  0  0  0  0
 19 20  1  0  0  0  0
 20 21  1  0  0  0  0
 21 26  1  0  0  0  0
 22 23  1  0  0  0  0
 22 21  2  0  0  0  0
 23 24  2  0  0  0  0
 24 25  1  0  0  0  0
 26 25  2  0  0  0  0
M  END
>  <MODEL>
7

>  <REMARK>
 VINA RESULT:    -4.604     21.169     23.791
 INTER + INTRA:          -8.333
 INTER:                  -7.628
 INTRA:                  -0.704
 UNBOUND:                -1.037
  Name = CHEMBL4552042
  12 active torsions:
  status: ('A' for Active; 'I' for Inactive)
    1  A    between atoms: C_1  and  O_2
    2  A    between atoms: O_2  and  C_3
    3  A    between atoms: C_6  and  C_7
    4  A    between atoms: C_7  and  C_8
    5  A    between atoms: C_8  and  N_9
    6  A    between atoms: C_10  and  C_12
    7  A    between atoms: C_12  and  C_13
    8  A    between atoms: C_13  and  C_14
    9  A    between atoms: C_14  and  C_15
   10  A    between atoms: C_15  and  C_16
   11  A    between atoms: C_23  and  O_24
   12  A    between atoms: O_24  and  C_25
                            x       y       z     vdW  Elec       q    Type
                         _______ _______ _______ _____ _____    ______ ____

>  <TORSDO>
F 10

>  <SCORE>
-4.604

>  <RMSD_LB>
21.169

>  <RMSD_UB>
23.791

$$$$
CHEMBL4552042
 OpenBabel10172500283D

 26 27  0  0  0  0  0  0  0  0999 V2000
  154.3120  133.3310  154.7460 N   0  0  0  0  0  0  0  0  0  0  0  0
  153.6810  132.7140  153.6880 C   0  0  0  0  0  0  0  0  0  0  0  0
  153.3040  133.3220  152.6890 O   0  0  0  0  0  0  0  0  0  0  0  0
  154.6210  132.7960  155.5120 H   0  0  0  0  0  0  0  0  0  0  0  0
  154.5230  134.7670  154.7320 C   0  0  0  0  0  2  0  0  0  0  0  0
  153.4150  135.5450  155.4430 C   0  0  0  0  0  2  0  0  0  0  0  0
  152.0020  133.4300  158.9590 C   0  0  0  0  0  0  0  0  0  0  0  0
  151.1120  133.8280  157.9520 C   0  0  0  0  0  3  0  0  0  0  0  0
  151.5660  134.5060  156.8150 C   0  0  0  0  0  3  0  0  0  0  0  0
  152.9210  134.8150  156.6670 C   0  0  0  0  0  0  0  0  0  0  0  0
  153.8130  134.4060  157.6660 C   0  0  0  0  0  3  0  0  0  0  0  0
  153.3700  133.7070  158.8000 C   0  0  0  0  0  0  0  0  0  0  0  0
  150.6460  131.7940  160.0400 C   0  0  0  0  0  1  0  0  0  0  0  0
  151.5910  132.8530  160.1320 O   0  0  0  0  0  0  0  0  0  0  0  0
  154.3800  133.3990  159.6770 O   0  0  0  0  0  0  0  0  0  0  0  0
  154.9950  132.1260  159.5120 C   0  0  0  0  0  1  0  0  0  0  0  0
  153.5050  131.2150  153.8220 C   0  0  0  0  0  2  0  0  0  0  0  0
  152.0410  130.8170  153.9820 C   0  0  0  0  0  2  0  0  0  0  0  0
  151.5220  131.0930  155.3960 C   0  0  0  0  0  2  0  0  0  0  0  0
  152.5020  130.5450  156.4370 C   0  0  0  0  0  2  0  0  0  0  0  0
  152.2430  129.1060  156.8040 C   0  0  0  0  0  0  0  0  0  0  0  0
  152.9850  128.0730  156.2130 C   0  0  0  0  0  3  0  0  0  0  0  0
  152.7850  126.7470  156.6030 C   0  0  0  0  0  3  0  0  0  0  0  0
  151.8360  126.4400  157.5780 C   0  0  0  0  0  3  0  0  0  0  0  0
  151.0780  127.4570  158.1530 C   0  0  0  0  0  3  0  0  0  0  0  0
  151.2760  128.7830  157.7650 C   0  0  0  0  0  3  0  0  0  0  0  0
  1  4  1  0  0  0  0
  2 17  1  0  0  0  0
  2  1  1  0  0  0  0
  3  2  2  0  0  0  0
  5  1  1  0  0  0  0
  5  6  1  0  0  0  0
  6 10  1  0  0  0  0
  7 14  1  0  0  0  0
  8  7  2  0  0  0  0
  9  8  1  0  0  0  0
 10  9  2  0  0  0  0
 10 11  1  0  0  0  0
 11 12  2  0  0  0  0
 12  7  1  0  0  0  0
 12 15  1  0  0  0  0
 13 14  1  0  0  0  0
 16 15  1  0  0  0  0
 17 18  1  0  0  0  0
 18 19  1  0  0  0  0
 19 20  1  0  0  0  0
 20 21  1  0  0  0  0
 21 26  1  0  0  0  0
 22 23  1  0  0  0  0
 22 21  2  0  0  0  0
 23 24  2  0  0  0  0
 24 25  1  0  0  0  0
 26 25  2  0  0  0  0
M  END
>  <MODEL>
8

>  <REMARK>
 VINA RESULT:    -4.558     18.216     20.077
 INTER + INTRA:          -8.259
 INTER:                  -6.465
 INTRA:                  -1.794
 UNBOUND:                -1.037
  Name = CHEMBL4552042
  12 active torsions:
  status: ('A' for Active; 'I' for Inactive)
    1  A    between atoms: C_1  and  O_2
    2  A    between atoms: O_2  and  C_3
    3  A    between atoms: C_6  and  C_7
    4  A    between atoms: C_7  and  C_8
    5  A    between atoms: C_8  and  N_9
    6  A    between atoms: C_10  and  C_12
    7  A    between atoms: C_12  and  C_13
    8  A    between atoms: C_13  and  C_14
    9  A    between atoms: C_14  and  C_15
   10  A    between atoms: C_15  and  C_16
   11  A    between atoms: C_23  and  O_24
   12  A    between atoms: O_24  and  C_25
                            x       y       z     vdW  Elec       q    Type
                         _______ _______ _______ _____ _____    ______ ____

>  <TORSDO>
F 10

>  <SCORE>
-4.558

>  <RMSD_LB>
18.216

>  <RMSD_UB>
20.077

$$$$
CHEMBL4552042
 OpenBabel10172500283D

 26 27  0  0  0  0  0  0  0  0999 V2000
  124.7090  140.0810  142.7610 N   0  0  0  0  0  0  0  0  0  0  0  0
  125.3730  141.2870  142.7810 C   0  0  0  0  0  0  0  0  0  0  0  0
  125.8770  141.7890  141.7790 O   0  0  0  0  0  0  0  0  0  0  0  0
  124.2970  139.7340  143.5850 H   0  0  0  0  0  0  0  0  0  0  0  0
  124.6150  139.3200  141.5290 C   0  0  0  0  0  2  0  0  0  0  0  0
  125.6700  138.2190  141.4180 C   0  0  0  0  0  2  0  0  0  0  0  0
  128.9960  139.4250  138.9050 C   0  0  0  0  0  0  0  0  0  0  0  0
  129.1580  139.2700  140.2880 C   0  0  0  0  0  3  0  0  0  0  0  0
  128.0880  138.8770  141.1000 C   0  0  0  0  0  3  0  0  0  0  0  0
  126.8260  138.6440  140.5470 C   0  0  0  0  0  0  0  0  0  0  0  0
  126.6660  138.7850  139.1630 C   0  0  0  0  0  3  0  0  0  0  0  0
  127.7390  139.1580  138.3380 C   0  0  0  0  0  0  0  0  0  0  0  0
  131.3260  139.5520  138.4140 C   0  0  0  0  0  1  0  0  0  0  0  0
  129.9860  139.9010  138.0870 O   0  0  0  0  0  0  0  0  0  0  0  0
  127.3940  139.2590  137.0130 O   0  0  0  0  0  0  0  0  0  0  0  0
  126.7940  140.4840  136.6060 C   0  0  0  0  0  1  0  0  0  0  0  0
  125.4170  141.9820  144.1270 C   0  0  0  0  0  2  0  0  0  0  0  0
  125.3980  143.5020  143.9940 C   0  0  0  0  0  2  0  0  0  0  0  0
  125.8800  144.1960  145.2720 C   0  0  0  0  0  2  0  0  0  0  0  0
  127.1710  144.9710  144.9990 C   0  0  0  0  0  2  0  0  0  0  0  0
  126.9930  146.1090  144.0260 C   0  0  0  0  0  0  0  0  0  0  0  0
  127.7410  146.1600  142.8420 C   0  0  0  0  0  3  0  0  0  0  0  0
  127.5280  147.1820  141.9150 C   0  0  0  0  0  3  0  0  0  0  0  0
  126.5740  148.1670  142.1670 C   0  0  0  0  0  3  0  0  0  0  0  0
  125.8420  148.1380  143.3520 C   0  0  0  0  0  3  0  0  0  0  0  0
  126.0550  147.1170  144.2800 C   0  0  0  0  0  3  0  0  0  0  0  0
  1  2  1  0  0  0  0
  1  4  1  0  0  0  0
  2 17  1  0  0  0  0
  3  2  2  0  0  0  0
  5  1  1  0  0  0  0
  6  5  1  0  0  0  0
  7  8  1  0  0  0  0
  8  9  2  0  0  0  0
 10  9  1  0  0  0  0
 10  6  1  0  0  0  0
 11 10  2  0  0  0  0
 12  7  2  0  0  0  0
 12 11  1  0  0  0  0
 14 13  1  0  0  0  0
 14  7  1  0  0  0  0
 15 12  1  0  0  0  0
 16 15  1  0  0  0  0
 18 17  1  0  0  0  0
 18 19  1  0  0  0  0
 20 19  1  0  0  0  0
 21 26  1  0  0  0  0
 21 20  1  0  0  0  0
 22 21  2  0  0  0  0
 23 24  2  0  0  0  0
 23 22  1  0  0  0  0
 24 25  1  0  0  0  0
 25 26  2  0  0  0  0
M  END
>  <MODEL>
9

>  <REMARK>
 VINA RESULT:    -4.497     12.020     14.543
 INTER + INTRA:          -8.164
 INTER:                  -7.126
 INTRA:                  -1.037
 UNBOUND:                -1.037
  Name = CHEMBL4552042
  12 active torsions:
  status: ('A' for Active; 'I' for Inactive)
    1  A    between atoms: C_1  and  O_2
    2  A    between atoms: O_2  and  C_3
    3  A    between atoms: C_6  and  C_7
    4  A    between atoms: C_7  and  C_8
    5  A    between atoms: C_8  and  N_9
    6  A    between atoms: C_10  and  C_12
    7  A    between atoms: C_12  and  C_13
    8  A    between atoms: C_13  and  C_14
    9  A    between atoms: C_14  and  C_15
   10  A    between atoms: C_15  and  C_16
   11  A    between atoms: C_23  and  O_24
   12  A    between atoms: O_24  and  C_25
                            x       y       z     vdW  Elec       q    Type
                         _______ _______ _______ _____ _____    ______ ____

>  <TORSDO>
F 10

>  <SCORE>
-4.497

>  <RMSD_LB>
12.020

>  <RMSD_UB>
14.543

$$$$
