CHEMBL1092047
 OpenBabel10172500443D

 18 18  0  0  0  0  0  0  0  0999 V2000
  138.2840  138.0610  155.2080 C   0  0  0  0  0  0  0  0  0  0  0  0
  137.6840  137.4360  154.1080 C   0  0  0  0  0  3  0  0  0  0  0  0
  136.7370  136.4100  154.2850 C   0  0  0  0  0  0  0  0  0  0  0  0
  136.4100  136.0060  155.5850 C   0  0  0  0  0  3  0  0  0  0  0  0
  136.9990  136.6220  156.6900 C   0  0  0  0  0  3  0  0  0  0  0  0
  137.9290  137.6420  156.4980 C   0  0  0  0  0  0  0  0  0  0  0  0
  140.4000  138.8110  154.4040 C   0  0  0  0  0  1  0  0  0  0  0  0
  139.2120  139.0680  155.1340 O   0  0  0  0  0  0  0  0  0  0  0  0
  138.5070  138.2460  157.5840 O   0  0  0  0  0  0  0  0  0  0  0  0
  139.3980  138.5330  157.5410 H   0  0  0  0  0  0  0  0  0  0  0  0
  136.1070  135.7300  153.0880 C   0  0  0  0  0  2  0  0  0  0  0  0
  135.3080  134.4760  153.4600 C   0  0  0  0  0  2  0  0  0  0  0  0
  133.8070  134.6960  153.2800 C   0  0  0  0  0  2  0  0  0  0  0  0
  133.2970  133.9980  152.1160 N   0  0  0  0  0  0  0  0  0  0  0  0
  133.0750  134.6400  150.9190 C   0  0  0  0  0  0  0  0  0  0  0  0
  132.5710  133.7490  149.8130 C   0  0  0  0  0  1  0  0  0  0  0  0
  133.2590  135.8410  150.7490 O   0  0  0  0  0  0  0  0  0  0  0  0
  133.1050  133.0350  152.1820 H   0  0  0  0  0  0  0  0  0  0  0  0
  1  6  1  0  0  0  0
  2  3  1  0  0  0  0
  2  1  2  0  0  0  0
  3  4  2  0  0  0  0
  4  5  1  0  0  0  0
  6  5  2  0  0  0  0
  6  9  1  0  0  0  0
  7  8  1  0  0  0  0
  8  1  1  0  0  0  0
 10  9  1  0  0  0  0
 11 12  1  0  0  0  0
 11  3  1  0  0  0  0
 13 12  1  0  0  0  0
 14 18  1  0  0  0  0
 14 13  1  0  0  0  0
 15 14  1  0  0  0  0
 16 15  1  0  0  0  0
 17 15  2  0  0  0  0
M  END
>  <MODEL>
1

>  <REMARK>
 VINA RESULT:    -5.694      0.000      0.000
 INTER + INTRA:          -8.028
 INTER:                  -7.618
 INTRA:                  -0.410
 UNBOUND:                -0.504
  Name = CHEMBL1092047
  8 active torsions:
  status: ('A' for Active; 'I' for Inactive)
    1  A    between atoms: C_1  and  O_2
    2  A    between atoms: O_2  and  C_3
    3  A    between atoms: C_5  and  C_6
    4  A    between atoms: C_6  and  C_7
    5  A    between atoms: C_7  and  C_8
    6  A    between atoms: C_8  and  N_9
    7  A    between atoms: C_10  and  C_11
    8  A    between atoms: C_15  and  O_16
                            x       y       z     vdW  Elec       q    Type
                         _______ _______ _______ _____ _____    ______ ____

>  <TORSDO>
F 6

>  <SCORE>
-5.694

>  <RMSD_LB>
0.000

>  <RMSD_UB>
0.000

$$$$
CHEMBL1092047
 OpenBabel10172500443D

 18 18  0  0  0  0  0  0  0  0999 V2000
  144.7360  140.6810  150.4350 C   0  0  0  0  0  0  0  0  0  0  0  0
  144.9870  141.0680  151.7580 C   0  0  0  0  0  3  0  0  0  0  0  0
  146.0620  141.9180  152.0730 C   0  0  0  0  0  0  0  0  0  0  0  0
  146.8980  142.3640  151.0420 C   0  0  0  0  0  3  0  0  0  0  0  0
  146.6580  141.9890  149.7190 C   0  0  0  0  0  3  0  0  0  0  0  0
  145.5830  141.1530  149.4230 C   0  0  0  0  0  0  0  0  0  0  0  0
  143.6700  138.5520  150.5780 C   0  0  0  0  0  1  0  0  0  0  0  0
  143.7130  139.8610  150.0330 O   0  0  0  0  0  0  0  0  0  0  0  0
  145.3490  140.7850  148.1240 O   0  0  0  0  0  0  0  0  0  0  0  0
  144.4790  140.8190  147.7770 H   0  0  0  0  0  0  0  0  0  0  0  0
  146.3340  142.3150  153.5080 C   0  0  0  0  0  2  0  0  0  0  0  0
  147.6130  141.6860  154.0750 C   0  0  0  0  0  2  0  0  0  0  0  0
  147.5400  140.1600  154.0550 C   0  0  0  0  0  2  0  0  0  0  0  0
  147.6370  139.6000  155.3890 N   0  0  0  0  0  0  0  0  0  0  0  0
  148.1440  138.3410  155.6160 C   0  0  0  0  0  0  0  0  0  0  0  0
  148.1940  137.9380  157.0670 C   0  0  0  0  0  1  0  0  0  0  0  0
  148.5220  137.5900  154.7220 O   0  0  0  0  0  0  0  0  0  0  0  0
  147.3330  140.1370  156.1560 H   0  0  0  0  0  0  0  0  0  0  0  0
  1  2  1  0  0  0  0
  2  3  2  0  0  0  0
  3 11  1  0  0  0  0
  4  3  1  0  0  0  0
  5  4  2  0  0  0  0
  6  5  1  0  0  0  0
  6  1  2  0  0  0  0
  8  1  1  0  0  0  0
  8  7  1  0  0  0  0
  9  6  1  0  0  0  0
 10  9  1  0  0  0  0
 11 12  1  0  0  0  0
 13 12  1  0  0  0  0
 13 14  1  0  0  0  0
 14 15  1  0  0  0  0
 14 18  1  0  0  0  0
 15 16  1  0  0  0  0
 17 15  2  0  0  0  0
M  END
>  <MODEL>
2

>  <REMARK>
 VINA RESULT:    -5.505      9.677     12.725
 INTER + INTRA:          -7.779
 INTER:                  -7.457
 INTRA:                  -0.322
 UNBOUND:                -0.504
  Name = CHEMBL1092047
  8 active torsions:
  status: ('A' for Active; 'I' for Inactive)
    1  A    between atoms: C_1  and  O_2
    2  A    between atoms: O_2  and  C_3
    3  A    between atoms: C_5  and  C_6
    4  A    between atoms: C_6  and  C_7
    5  A    between atoms: C_7  and  C_8
    6  A    between atoms: C_8  and  N_9
    7  A    between atoms: C_10  and  C_11
    8  A    between atoms: C_15  and  O_16
                            x       y       z     vdW  Elec       q    Type
                         _______ _______ _______ _____ _____    ______ ____

>  <TORSDO>
F 6

>  <SCORE>
-5.505

>  <RMSD_LB>
9.677

>  <RMSD_UB>
12.725

$$$$
CHEMBL1092047
 OpenBabel10172500443D

 18 18  0  0  0  0  0  0  0  0999 V2000
  147.8270  139.9210  152.9140 C   0  0  0  0  0  0  0  0  0  0  0  0
  146.9080  140.1440  151.8810 C   0  0  0  0  0  3  0  0  0  0  0  0
  146.1080  141.3020  151.8610 C   0  0  0  0  0  0  0  0  0  0  0  0
  146.2300  142.2280  152.9040 C   0  0  0  0  0  3  0  0  0  0  0  0
  147.1440  142.0190  153.9380 C   0  0  0  0  0  3  0  0  0  0  0  0
  147.9350  140.8710  153.9380 C   0  0  0  0  0  0  0  0  0  0  0  0
  148.0430  137.5760  153.2950 C   0  0  0  0  0  1  0  0  0  0  0  0
  148.6500  138.8280  153.0150 O   0  0  0  0  0  0  0  0  0  0  0  0
  148.8310  140.6660  154.9540 O   0  0  0  0  0  0  0  0  0  0  0  0
  149.2730  139.8430  155.0300 H   0  0  0  0  0  0  0  0  0  0  0  0
  145.1060  141.5240  150.7490 C   0  0  0  0  0  2  0  0  0  0  0  0
  144.1270  140.3560  150.5790 C   0  0  0  0  0  2  0  0  0  0  0  0
  143.5050  139.9500  151.9140 C   0  0  0  0  0  2  0  0  0  0  0  0
  142.2090  139.3240  151.7350 N   0  0  0  0  0  0  0  0  0  0  0  0
  142.0230  137.9710  151.9050 C   0  0  0  0  0  0  0  0  0  0  0  0
  140.6050  137.5040  151.7050 C   0  0  0  0  0  1  0  0  0  0  0  0
  142.9270  137.1920  152.1900 O   0  0  0  0  0  0  0  0  0  0  0  0
  141.4380  139.8830  151.4860 H   0  0  0  0  0  0  0  0  0  0  0  0
  1  8  1  0  0  0  0
  1  6  1  0  0  0  0
  2  1  2  0  0  0  0
  3  2  1  0  0  0  0
  3  4  2  0  0  0  0
  4  5  1  0  0  0  0
  6  5  2  0  0  0  0
  6  9  1  0  0  0  0
  8  7  1  0  0  0  0
  9 10  1  0  0  0  0
 11  3  1  0  0  0  0
 12 11  1  0  0  0  0
 12 13  1  0  0  0  0
 14 15  1  0  0  0  0
 14 13  1  0  0  0  0
 15 17  2  0  0  0  0
 16 15  1  0  0  0  0
 18 14  1  0  0  0  0
M  END
>  <MODEL>
3

>  <REMARK>
 VINA RESULT:    -5.239      7.127     10.404
 INTER + INTRA:          -7.427
 INTER:                  -7.180
 INTRA:                  -0.247
 UNBOUND:                -0.504
  Name = CHEMBL1092047
  8 active torsions:
  status: ('A' for Active; 'I' for Inactive)
    1  A    between atoms: C_1  and  O_2
    2  A    between atoms: O_2  and  C_3
    3  A    between atoms: C_5  and  C_6
    4  A    between atoms: C_6  and  C_7
    5  A    between atoms: C_7  and  C_8
    6  A    between atoms: C_8  and  N_9
    7  A    between atoms: C_10  and  C_11
    8  A    between atoms: C_15  and  O_16
                            x       y       z     vdW  Elec       q    Type
                         _______ _______ _______ _____ _____    ______ ____

>  <TORSDO>
F 6

>  <SCORE>
-5.239

>  <RMSD_LB>
7.127

>  <RMSD_UB>
10.404

$$$$
CHEMBL1092047
 OpenBabel10172500443D

 18 18  0  0  0  0  0  0  0  0999 V2000
  133.8380  136.1810  145.9210 C   0  0  0  0  0  0  0  0  0  0  0  0
  133.8810  134.9550  146.5970 C   0  0  0  0  0  3  0  0  0  0  0  0
  133.3900  134.8330  147.9100 C   0  0  0  0  0  0  0  0  0  0  0  0
  132.8680  135.9660  148.5460 C   0  0  0  0  0  3  0  0  0  0  0  0
  132.8160  137.1940  147.8830 C   0  0  0  0  0  3  0  0  0  0  0  0
  133.2990  137.2950  146.5800 C   0  0  0  0  0  0  0  0  0  0  0  0
  135.4580  135.7020  144.2380 C   0  0  0  0  0  1  0  0  0  0  0  0
  134.2870  136.3930  144.6430 O   0  0  0  0  0  0  0  0  0  0  0  0
  133.2490  138.5000  145.9300 O   0  0  0  0  0  0  0  0  0  0  0  0
  133.2770  139.2980  146.4210 H   0  0  0  0  0  0  0  0  0  0  0  0
  133.4580  133.5070  148.6370 C   0  0  0  0  0  2  0  0  0  0  0  0
  132.7330  133.5240  149.9880 C   0  0  0  0  0  2  0  0  0  0  0  0
  133.6960  133.2450  151.1410 C   0  0  0  0  0  2  0  0  0  0  0  0
  133.4600  134.1310  152.2640 N   0  0  0  0  0  0  0  0  0  0  0  0
  134.4730  134.8660  152.8380 C   0  0  0  0  0  0  0  0  0  0  0  0
  134.0370  135.7530  153.9750 C   0  0  0  0  0  1  0  0  0  0  0  0
  135.6430  134.8110  152.4720 O   0  0  0  0  0  0  0  0  0  0  0  0
  132.5490  134.2120  152.6270 H   0  0  0  0  0  0  0  0  0  0  0  0
  1  6  2  0  0  0  0
  1  2  1  0  0  0  0
  2  3  2  0  0  0  0
  3  4  1  0  0  0  0
  3 11  1  0  0  0  0
  5  4  2  0  0  0  0
  6  5  1  0  0  0  0
  7  8  1  0  0  0  0
  8  1  1  0  0  0  0
  9 10  1  0  0  0  0
  9  6  1  0  0  0  0
 11 12  1  0  0  0  0
 12 13  1  0  0  0  0
 13 14  1  0  0  0  0
 14 18  1  0  0  0  0
 14 15  1  0  0  0  0
 15 16  1  0  0  0  0
 17 15  2  0  0  0  0
M  END
>  <MODEL>
4

>  <REMARK>
 VINA RESULT:    -5.014      3.959      8.131
 INTER + INTRA:          -7.130
 INTER:                  -6.773
 INTRA:                  -0.357
 UNBOUND:                -0.504
  Name = CHEMBL1092047
  8 active torsions:
  status: ('A' for Active; 'I' for Inactive)
    1  A    between atoms: C_1  and  O_2
    2  A    between atoms: O_2  and  C_3
    3  A    between atoms: C_5  and  C_6
    4  A    between atoms: C_6  and  C_7
    5  A    between atoms: C_7  and  C_8
    6  A    between atoms: C_8  and  N_9
    7  A    between atoms: C_10  and  C_11
    8  A    between atoms: C_15  and  O_16
                            x       y       z     vdW  Elec       q    Type
                         _______ _______ _______ _____ _____    ______ ____

>  <TORSDO>
F 6

>  <SCORE>
-5.014

>  <RMSD_LB>
3.959

>  <RMSD_UB>
8.131

$$$$
CHEMBL1092047
 OpenBabel10172500443D

 18 18  0  0  0  0  0  0  0  0999 V2000
  146.6060  140.4490  153.0920 C   0  0  0  0  0  0  0  0  0  0  0  0
  146.7920  139.8690  151.8310 C   0  0  0  0  0  3  0  0  0  0  0  0
  146.4970  140.5810  150.6540 C   0  0  0  0  0  0  0  0  0  0  0  0
  145.9930  141.8830  150.7590 C   0  0  0  0  0  3  0  0  0  0  0  0
  145.8040  142.4750  152.0090 C   0  0  0  0  0  3  0  0  0  0  0  0
  146.1110  141.7580  153.1650 C   0  0  0  0  0  0  0  0  0  0  0  0
  148.2290  139.6060  154.6230 C   0  0  0  0  0  1  0  0  0  0  0  0
  146.8690  139.8350  154.2900 O   0  0  0  0  0  0  0  0  0  0  0  0
  145.9250  142.3390  154.3920 O   0  0  0  0  0  0  0  0  0  0  0  0
  146.5040  143.0150  154.6830 H   0  0  0  0  0  0  0  0  0  0  0  0
  146.6860  139.9370  149.2980 C   0  0  0  0  0  2  0  0  0  0  0  0
  146.3140  138.4490  149.2810 C   0  0  0  0  0  2  0  0  0  0  0  0
  144.8670  138.2410  148.8390 C   0  0  0  0  0  2  0  0  0  0  0  0
  143.9430  138.3660  149.9500 N   0  0  0  0  0  0  0  0  0  0  0  0
  143.0610  139.4180  150.0510 C   0  0  0  0  0  0  0  0  0  0  0  0
  142.1590  139.3670  151.2570 C   0  0  0  0  0  1  0  0  0  0  0  0
  143.0040  140.3360  149.2390 O   0  0  0  0  0  0  0  0  0  0  0  0
  143.9450  137.6770  150.6530 H   0  0  0  0  0  0  0  0  0  0  0  0
  1  6  1  0  0  0  0
  1  8  1  0  0  0  0
  2  1  2  0  0  0  0
  3  4  2  0  0  0  0
  3  2  1  0  0  0  0
  4  5  1  0  0  0  0
  5  6  2  0  0  0  0
  6  9  1  0  0  0  0
  8  7  1  0  0  0  0
  9 10  1  0  0  0  0
 11  3  1  0  0  0  0
 12 11  1  0  0  0  0
 13 12  1  0  0  0  0
 13 14  1  0  0  0  0
 14 15  1  0  0  0  0
 14 18  1  0  0  0  0
 15 16  1  0  0  0  0
 17 15  2  0  0  0  0
M  END
>  <MODEL>
5

>  <REMARK>
 VINA RESULT:    -4.952      8.450     10.718
 INTER + INTRA:          -7.048
 INTER:                  -6.368
 INTRA:                  -0.680
 UNBOUND:                -0.504
  Name = CHEMBL1092047
  8 active torsions:
  status: ('A' for Active; 'I' for Inactive)
    1  A    between atoms: C_1  and  O_2
    2  A    between atoms: O_2  and  C_3
    3  A    between atoms: C_5  and  C_6
    4  A    between atoms: C_6  and  C_7
    5  A    between atoms: C_7  and  C_8
    6  A    between atoms: C_8  and  N_9
    7  A    between atoms: C_10  and  C_11
    8  A    between atoms: C_15  and  O_16
                            x       y       z     vdW  Elec       q    Type
                         _______ _______ _______ _____ _____    ______ ____

>  <TORSDO>
F 6

>  <SCORE>
-4.952

>  <RMSD_LB>
8.450

>  <RMSD_UB>
10.718

$$$$
CHEMBL1092047
 OpenBabel10172500443D

 18 18  0  0  0  0  0  0  0  0999 V2000
  147.0080  139.9770  153.4530 C   0  0  0  0  0  0  0  0  0  0  0  0
  145.8060  139.2570  153.4490 C   0  0  0  0  0  3  0  0  0  0  0  0
  145.7700  137.9060  153.8400 C   0  0  0  0  0  0  0  0  0  0  0  0
  146.9620  137.2790  154.2200 C   0  0  0  0  0  3  0  0  0  0  0  0
  148.1660  137.9850  154.2310 C   0  0  0  0  0  3  0  0  0  0  0  0
  148.1830  139.3250  153.8490 C   0  0  0  0  0  0  0  0  0  0  0  0
  145.9910  141.9500  152.5800 C   0  0  0  0  0  1  0  0  0  0  0  0
  147.1390  141.2940  153.0930 O   0  0  0  0  0  0  0  0  0  0  0  0
  149.3650  140.0180  153.8590 O   0  0  0  0  0  0  0  0  0  0  0  0
  150.1800  139.5540  153.8480 H   0  0  0  0  0  0  0  0  0  0  0  0
  144.4690  137.1330  153.8160 C   0  0  0  0  0  2  0  0  0  0  0  0
  143.3540  137.8570  153.0490 C   0  0  0  0  0  2  0  0  0  0  0  0
  142.2550  138.3450  153.9920 C   0  0  0  0  0  2  0  0  0  0  0  0
  140.9400  137.9260  153.5460 N   0  0  0  0  0  0  0  0  0  0  0  0
  139.7940  138.5690  153.9530 C   0  0  0  0  0  0  0  0  0  0  0  0
  138.5220  138.0150  153.3660 C   0  0  0  0  0  1  0  0  0  0  0  0
  139.7870  139.5150  154.7360 O   0  0  0  0  0  0  0  0  0  0  0  0
  140.8650  137.1610  152.9320 H   0  0  0  0  0  0  0  0  0  0  0  0
  1  6  1  0  0  0  0
  2  1  2  0  0  0  0
  2  3  1  0  0  0  0
  3  4  2  0  0  0  0
  4  5  1  0  0  0  0
  6  9  1  0  0  0  0
  6  5  2  0  0  0  0
  7  8  1  0  0  0  0
  8  1  1  0  0  0  0
 10  9  1  0  0  0  0
 11  3  1  0  0  0  0
 12 11  1  0  0  0  0
 12 13  1  0  0  0  0
 14 15  1  0  0  0  0
 14 13  1  0  0  0  0
 15 17  2  0  0  0  0
 16 15  1  0  0  0  0
 18 14  1  0  0  0  0
M  END
>  <MODEL>
6

>  <REMARK>
 VINA RESULT:    -4.859      6.173      9.247
 INTER + INTRA:          -6.925
 INTER:                  -6.655
 INTRA:                  -0.270
 UNBOUND:                -0.504
  Name = CHEMBL1092047
  8 active torsions:
  status: ('A' for Active; 'I' for Inactive)
    1  A    between atoms: C_1  and  O_2
    2  A    between atoms: O_2  and  C_3
    3  A    between atoms: C_5  and  C_6
    4  A    between atoms: C_6  and  C_7
    5  A    between atoms: C_7  and  C_8
    6  A    between atoms: C_8  and  N_9
    7  A    between atoms: C_10  and  C_11
    8  A    between atoms: C_15  and  O_16
                            x       y       z     vdW  Elec       q    Type
                         _______ _______ _______ _____ _____    ______ ____

>  <TORSDO>
F 6

>  <SCORE>
-4.859

>  <RMSD_LB>
6.173

>  <RMSD_UB>
9.247

$$$$
CHEMBL1092047
 OpenBabel10172500443D

 18 18  0  0  0  0  0  0  0  0999 V2000
  147.8180  136.9670  152.2390 C   0  0  0  0  0  0  0  0  0  0  0  0
  146.4410  136.7860  152.4240 C   0  0  0  0  0  3  0  0  0  0  0  0
  145.8050  137.2220  153.6010 C   0  0  0  0  0  0  0  0  0  0  0  0
  146.5730  137.8290  154.6020 C   0  0  0  0  0  3  0  0  0  0  0  0
  147.9450  138.0180  154.4300 C   0  0  0  0  0  3  0  0  0  0  0  0
  148.5580  137.5890  153.2540 C   0  0  0  0  0  0  0  0  0  0  0  0
  147.8120  135.8950  150.1090 C   0  0  0  0  0  1  0  0  0  0  0  0
  148.5220  136.5800  151.1280 O   0  0  0  0  0  0  0  0  0  0  0  0
  149.9050  137.7740  153.0860 O   0  0  0  0  0  0  0  0  0  0  0  0
  150.4810  137.0350  153.0640 H   0  0  0  0  0  0  0  0  0  0  0  0
  144.3200  137.0050  153.7970 C   0  0  0  0  0  2  0  0  0  0  0  0
  143.5330  138.3150  153.9320 C   0  0  0  0  0  2  0  0  0  0  0  0
  143.7730  139.2360  152.7370 C   0  0  0  0  0  2  0  0  0  0  0  0
  144.5270  140.4170  153.1110 N   0  0  0  0  0  0  0  0  0  0  0  0
  145.6810  140.7820  152.4560 C   0  0  0  0  0  0  0  0  0  0  0  0
  146.3140  142.0520  152.9630 C   0  0  0  0  0  1  0  0  0  0  0  0
  146.1740  140.1370  151.5360 O   0  0  0  0  0  0  0  0  0  0  0  0
  144.2050  140.9740  153.8560 H   0  0  0  0  0  0  0  0  0  0  0  0
  1  2  2  0  0  0  0
  1  6  1  0  0  0  0
  2  3  1  0  0  0  0
  3 11  1  0  0  0  0
  3  4  2  0  0  0  0
  5  4  1  0  0  0  0
  6  5  2  0  0  0  0
  7  8  1  0  0  0  0
  8  1  1  0  0  0  0
  9  6  1  0  0  0  0
 10  9  1  0  0  0  0
 11 12  1  0  0  0  0
 13 14  1  0  0  0  0
 13 12  1  0  0  0  0
 14 18  1  0  0  0  0
 15 16  1  0  0  0  0
 15 14  1  0  0  0  0
 17 15  2  0  0  0  0
M  END
>  <MODEL>
7

>  <REMARK>
 VINA RESULT:    -4.840      9.130     11.337
 INTER + INTRA:          -6.900
 INTER:                  -6.200
 INTRA:                  -0.700
 UNBOUND:                -0.504
  Name = CHEMBL1092047
  8 active torsions:
  status: ('A' for Active; 'I' for Inactive)
    1  A    between atoms: C_1  and  O_2
    2  A    between atoms: O_2  and  C_3
    3  A    between atoms: C_5  and  C_6
    4  A    between atoms: C_6  and  C_7
    5  A    between atoms: C_7  and  C_8
    6  A    between atoms: C_8  and  N_9
    7  A    between atoms: C_10  and  C_11
    8  A    between atoms: C_15  and  O_16
                            x       y       z     vdW  Elec       q    Type
                         _______ _______ _______ _____ _____    ______ ____

>  <TORSDO>
F 6

>  <SCORE>
-4.840

>  <RMSD_LB>
9.130

>  <RMSD_UB>
11.337

$$$$
CHEMBL1092047
 OpenBabel10172500443D

 18 18  0  0  0  0  0  0  0  0999 V2000
  133.8760  136.7190  145.1660 C   0  0  0  0  0  0  0  0  0  0  0  0
  134.0760  135.3980  145.5870 C   0  0  0  0  0  3  0  0  0  0  0  0
  133.7120  134.9870  146.8820 C   0  0  0  0  0  0  0  0  0  0  0  0
  133.1580  135.9260  147.7600 C   0  0  0  0  0  3  0  0  0  0  0  0
  132.9500  137.2450  147.3540 C   0  0  0  0  0  3  0  0  0  0  0  0
  133.3080  137.6330  146.0640 C   0  0  0  0  0  0  0  0  0  0  0  0
  135.3880  136.7360  143.3220 C   0  0  0  0  0  1  0  0  0  0  0  0
  134.1940  137.2090  143.9250 O   0  0  0  0  0  0  0  0  0  0  0  0
  133.1050  138.9290  145.6660 O   0  0  0  0  0  0  0  0  0  0  0  0
  132.9760  139.6010  146.3060 H   0  0  0  0  0  0  0  0  0  0  0  0
  133.9490  133.5610  147.3310 C   0  0  0  0  0  2  0  0  0  0  0  0
  135.4280  133.2520  147.5970 C   0  0  0  0  0  2  0  0  0  0  0  0
  135.9380  132.1380  146.6850 C   0  0  0  0  0  2  0  0  0  0  0  0
  136.4070  132.6560  145.4140 N   0  0  0  0  0  0  0  0  0  0  0  0
  136.0200  132.1040  144.2140 C   0  0  0  0  0  0  0  0  0  0  0  0
  136.5840  132.7910  142.9970 C   0  0  0  0  0  1  0  0  0  0  0  0
  135.2810  131.1290  144.1220 O   0  0  0  0  0  0  0  0  0  0  0  0
  137.0200  133.4260  145.4090 H   0  0  0  0  0  0  0  0  0  0  0  0
  1  2  2  0  0  0  0
  1  6  1  0  0  0  0
  2  3  1  0  0  0  0
  3 11  1  0  0  0  0
  3  4  2  0  0  0  0
  5  4  1  0  0  0  0
  6  5  2  0  0  0  0
  7  8  1  0  0  0  0
  8  1  1  0  0  0  0
  9  6  1  0  0  0  0
  9 10  1  0  0  0  0
 11 12  1  0  0  0  0
 13 12  1  0  0  0  0
 14 13  1  0  0  0  0
 15 14  1  0  0  0  0
 16 15  1  0  0  0  0
 17 15  2  0  0  0  0
 18 14  1  0  0  0  0
M  END
>  <MODEL>
8

>  <REMARK>
 VINA RESULT:    -4.804      8.258      9.504
 INTER + INTRA:          -6.853
 INTER:                  -6.349
 INTRA:                  -0.504
 UNBOUND:                -0.504
  Name = CHEMBL1092047
  8 active torsions:
  status: ('A' for Active; 'I' for Inactive)
    1  A    between atoms: C_1  and  O_2
    2  A    between atoms: O_2  and  C_3
    3  A    between atoms: C_5  and  C_6
    4  A    between atoms: C_6  and  C_7
    5  A    between atoms: C_7  and  C_8
    6  A    between atoms: C_8  and  N_9
    7  A    between atoms: C_10  and  C_11
    8  A    between atoms: C_15  and  O_16
                            x       y       z     vdW  Elec       q    Type
                         _______ _______ _______ _____ _____    ______ ____

>  <TORSDO>
F 6

>  <SCORE>
-4.804

>  <RMSD_LB>
8.258

>  <RMSD_UB>
9.504

$$$$
CHEMBL1092047
 OpenBabel10172500443D

 18 18  0  0  0  0  0  0  0  0999 V2000
  134.3900  134.2900  151.7710 C   0  0  0  0  0  0  0  0  0  0  0  0
  135.7020  134.6260  151.4140 C   0  0  0  0  0  3  0  0  0  0  0  0
  136.0710  134.7750  150.0640 C   0  0  0  0  0  0  0  0  0  0  0  0
  135.1070  134.5640  149.0710 C   0  0  0  0  0  3  0  0  0  0  0  0
  133.7940  134.2320  149.4130 C   0  0  0  0  0  3  0  0  0  0  0  0
  133.4440  134.0980  150.7550 C   0  0  0  0  0  0  0  0  0  0  0  0
  133.8430  135.2890  153.8670 C   0  0  0  0  0  1  0  0  0  0  0  0
  133.9390  134.1290  153.0560 O   0  0  0  0  0  0  0  0  0  0  0  0
  132.1560  133.7700  151.0890 O   0  0  0  0  0  0  0  0  0  0  0  0
  131.7050  134.2580  151.7500 H   0  0  0  0  0  0  0  0  0  0  0  0
  137.4960  135.1200  149.6900 C   0  0  0  0  0  2  0  0  0  0  0  0
  137.6140  136.4500  148.9340 C   0  0  0  0  0  2  0  0  0  0  0  0
  137.3940  137.6420  149.8640 C   0  0  0  0  0  2  0  0  0  0  0  0
  138.5440  137.8800  150.7140 N   0  0  0  0  0  0  0  0  0  0  0  0
  138.4900  137.7090  152.0790 C   0  0  0  0  0  0  0  0  0  0  0  0
  139.7890  137.9750  152.7950 C   0  0  0  0  0  1  0  0  0  0  0  0
  137.4750  137.3740  152.6810 O   0  0  0  0  0  0  0  0  0  0  0  0
  139.3900  138.1710  150.3030 H   0  0  0  0  0  0  0  0  0  0  0  0
  1  8  1  0  0  0  0
  2  1  1  0  0  0  0
  3  2  2  0  0  0  0
  4  5  2  0  0  0  0
  4  3  1  0  0  0  0
  5  6  1  0  0  0  0
  6  9  1  0  0  0  0
  6  1  2  0  0  0  0
  8  7  1  0  0  0  0
  9 10  1  0  0  0  0
 11  3  1  0  0  0  0
 12 11  1  0  0  0  0
 12 13  1  0  0  0  0
 13 14  1  0  0  0  0
 14 15  1  0  0  0  0
 15 17  2  0  0  0  0
 15 16  1  0  0  0  0
 18 14  1  0  0  0  0
M  END
>  <MODEL>
9

>  <REMARK>
 VINA RESULT:    -4.764      3.272      6.805
 INTER + INTRA:          -6.800
 INTER:                  -6.236
 INTRA:                  -0.564
 UNBOUND:                -0.504
  Name = CHEMBL1092047
  8 active torsions:
  status: ('A' for Active; 'I' for Inactive)
    1  A    between atoms: C_1  and  O_2
    2  A    between atoms: O_2  and  C_3
    3  A    between atoms: C_5  and  C_6
    4  A    between atoms: C_6  and  C_7
    5  A    between atoms: C_7  and  C_8
    6  A    between atoms: C_8  and  N_9
    7  A    between atoms: C_10  and  C_11
    8  A    between atoms: C_15  and  O_16
                            x       y       z     vdW  Elec       q    Type
                         _______ _______ _______ _____ _____    ______ ____

>  <TORSDO>
F 6

>  <SCORE>
-4.764

>  <RMSD_LB>
3.272

>  <RMSD_UB>
6.805

$$$$
