CHEMBL1973658
 OpenBabel10162523493D

 23 23  0  0  0  0  0  0  0  0999 V2000
  135.8360  136.3830  154.8530 C   0  0  0  0  0  2  0  0  0  0  0  0
  137.0180  136.5220  155.6960 N   0  0  0  0  0  0  0  0  0  0  0  0
  137.4440  137.7860  156.0470 C   0  0  0  0  0  0  0  0  0  0  0  0
  136.8920  138.8050  155.6450 O   0  0  0  0  0  0  0  0  0  0  0  0
  137.5040  135.7260  156.0100 H   0  0  0  0  0  0  0  0  0  0  0  0
  138.6830  137.8270  156.9280 C   0  0  0  0  0  2  0  0  0  0  0  0
  139.9220  137.4050  156.1310 C   0  0  0  0  0  2  0  0  0  0  0  0
  140.4550  138.5340  155.2500 C   0  0  0  0  0  2  0  0  0  0  0  0
  140.4090  138.1460  153.7720 C   0  0  0  0  0  2  0  0  0  0  0  0
  139.3300  138.9170  153.0220 C   0  0  0  0  0  2  0  0  0  0  0  0
  138.9460  140.0630  153.7690 O   0  0  0  0  0  0  0  0  0  0  0  0
  138.2390  140.5330  153.3000 H   0  0  0  0  0  0  0  0  0  0  0  0
  135.8900  135.1900  153.8950 C   0  0  0  0  0  2  0  0  0  0  0  0
  134.9390  136.2260  149.7850 C   0  0  0  0  0  0  0  0  0  0  0  0
  136.1870  136.5310  150.3420 C   0  0  0  0  0  3  0  0  0  0  0  0
  136.4930  136.1900  151.6610 C   0  0  0  0  0  3  0  0  0  0  0  0
  135.5460  135.5600  152.4690 C   0  0  0  0  0  0  0  0  0  0  0  0
  134.2830  135.2800  151.9250 C   0  0  0  0  0  3  0  0  0  0  0  0
  133.9910  135.5640  150.5770 C   0  0  0  0  0  0  0  0  0  0  0  0
  134.9680  135.7940  147.4440 C   0  0  0  0  0  1  0  0  0  0  0  0
  134.5750  136.6290  148.5270 O   0  0  0  0  0  0  0  0  0  0  0  0
  132.7310  135.1720  150.1850 O   0  0  0  0  0  0  0  0  0  0  0  0
  132.5970  133.7990  149.8230 C   0  0  0  0  0  1  0  0  0  0  0  0
  1  2  1  0  0  0  0
  2  5  1  0  0  0  0
  2  3  1  0  0  0  0
  3  6  1  0  0  0  0
  4  3  2  0  0  0  0
  7  6  1  0  0  0  0
  8  7  1  0  0  0  0
  9  8  1  0  0  0  0
 10 11  1  0  0  0  0
 10  9  1  0  0  0  0
 12 11  1  0  0  0  0
 13  1  1  0  0  0  0
 14 15  2  0  0  0  0
 14 19  1  0  0  0  0
 15 16  1  0  0  0  0
 16 17  2  0  0  0  0
 17 13  1  0  0  0  0
 18 17  1  0  0  0  0
 19 18  2  0  0  0  0
 20 21  1  0  0  0  0
 21 14  1  0  0  0  0
 22 19  1  0  0  0  0
 23 22  1  0  0  0  0
M  END
>  <MODEL>
1

>  <REMARK>
 VINA RESULT:    -5.636      0.000      0.000
 INTER + INTRA:         -10.251
 INTER:                  -9.175
 INTRA:                  -1.076
 UNBOUND:                -1.156
  Name = CHEMBL1973658
  13 active torsions:
  status: ('A' for Active; 'I' for Inactive)
    1  A    between atoms: C_1  and  O_2
    2  A    between atoms: O_2  and  C_3
    3  A    between atoms: C_6  and  C_7
    4  A    between atoms: C_7  and  C_8
    5  A    between atoms: C_8  and  N_9
    6  A    between atoms: C_10  and  C_12
    7  A    between atoms: C_12  and  C_13
    8  A    between atoms: C_13  and  C_14
    9  A    between atoms: C_14  and  C_15
   10  A    between atoms: C_15  and  C_16
   11  A    between atoms: C_16  and  O_17
   12  A    between atoms: C_19  and  O_20
   13  A    between atoms: O_20  and  C_21
                            x       y       z     vdW  Elec       q    Type
                         _______ _______ _______ _____ _____    ______ ____

>  <TORSDO>
F 11

>  <SCORE>
-5.636

>  <RMSD_LB>
0.000

>  <RMSD_UB>
0.000

$$$$
CHEMBL1973658
 OpenBabel10162523493D

 23 23  0  0  0  0  0  0  0  0999 V2000
  134.2880  134.8510  155.1980 C   0  0  0  0  0  2  0  0  0  0  0  0
  135.4080  135.1510  156.0830 N   0  0  0  0  0  0  0  0  0  0  0  0
  135.2260  135.0580  157.4470 C   0  0  0  0  0  0  0  0  0  0  0  0
  134.1460  134.7700  157.9520 O   0  0  0  0  0  0  0  0  0  0  0  0
  136.2800  135.4160  155.7130 H   0  0  0  0  0  0  0  0  0  0  0  0
  136.4510  135.3890  158.2850 C   0  0  0  0  0  2  0  0  0  0  0  0
  136.2350  136.6930  159.0590 C   0  0  0  0  0  2  0  0  0  0  0  0
  136.9330  137.8810  158.3970 C   0  0  0  0  0  2  0  0  0  0  0  0
  138.0030  137.4110  157.4110 C   0  0  0  0  0  2  0  0  0  0  0  0
  137.8980  138.1430  156.0790 C   0  0  0  0  0  2  0  0  0  0  0  0
  136.5770  138.0340  155.5680 O   0  0  0  0  0  0  0  0  0  0  0  0
  136.2040  137.1750  155.8180 H   0  0  0  0  0  0  0  0  0  0  0  0
  134.0560  135.8990  154.1080 C   0  0  0  0  0  2  0  0  0  0  0  0
  134.8430  134.3550  150.1240 C   0  0  0  0  0  0  0  0  0  0  0  0
  135.6630  134.0200  151.2100 C   0  0  0  0  0  3  0  0  0  0  0  0
  135.4030  134.5120  152.4900 C   0  0  0  0  0  3  0  0  0  0  0  0
  134.3310  135.3770  152.7150 C   0  0  0  0  0  0  0  0  0  0  0  0
  133.5260  135.7400  151.6250 C   0  0  0  0  0  3  0  0  0  0  0  0
  133.7450  135.1970  150.3440 C   0  0  0  0  0  0  0  0  0  0  0  0
  134.4480  132.8120  148.3550 C   0  0  0  0  0  1  0  0  0  0  0  0
  135.1240  133.9660  148.8410 O   0  0  0  0  0  0  0  0  0  0  0  0
  132.8300  135.6080  149.4010 O   0  0  0  0  0  0  0  0  0  0  0  0
  132.6570  137.0180  149.2830 C   0  0  0  0  0  1  0  0  0  0  0  0
  1  2  1  0  0  0  0
  2  3  1  0  0  0  0
  3  4  2  0  0  0  0
  3  6  1  0  0  0  0
  5  2  1  0  0  0  0
  6  7  1  0  0  0  0
  8  7  1  0  0  0  0
  9  8  1  0  0  0  0
 10  9  1  0  0  0  0
 11 12  1  0  0  0  0
 11 10  1  0  0  0  0
 13  1  1  0  0  0  0
 14 19  2  0  0  0  0
 14 15  1  0  0  0  0
 15 16  2  0  0  0  0
 16 17  1  0  0  0  0
 17 13  1  0  0  0  0
 18 17  2  0  0  0  0
 19 18  1  0  0  0  0
 20 21  1  0  0  0  0
 21 14  1  0  0  0  0
 22 19  1  0  0  0  0
 23 22  1  0  0  0  0
M  END
>  <MODEL>
2

>  <REMARK>
 VINA RESULT:    -5.557      2.301      3.139
 INTER + INTRA:         -10.125
 INTER:                  -9.173
 INTRA:                  -0.952
 UNBOUND:                -1.156
  Name = CHEMBL1973658
  13 active torsions:
  status: ('A' for Active; 'I' for Inactive)
    1  A    between atoms: C_1  and  O_2
    2  A    between atoms: O_2  and  C_3
    3  A    between atoms: C_6  and  C_7
    4  A    between atoms: C_7  and  C_8
    5  A    between atoms: C_8  and  N_9
    6  A    between atoms: C_10  and  C_12
    7  A    between atoms: C_12  and  C_13
    8  A    between atoms: C_13  and  C_14
    9  A    between atoms: C_14  and  C_15
   10  A    between atoms: C_15  and  C_16
   11  A    between atoms: C_16  and  O_17
   12  A    between atoms: C_19  and  O_20
   13  A    between atoms: O_20  and  C_21
                            x       y       z     vdW  Elec       q    Type
                         _______ _______ _______ _____ _____    ______ ____

>  <TORSDO>
F 11

>  <SCORE>
-5.557

>  <RMSD_LB>
2.301

>  <RMSD_UB>
3.139

$$$$
CHEMBL1973658
 OpenBabel10162523493D

 23 23  0  0  0  0  0  0  0  0999 V2000
  143.1740  139.1910  154.4530 C   0  0  0  0  0  2  0  0  0  0  0  0
  144.3170  139.9380  153.9420 N   0  0  0  0  0  0  0  0  0  0  0  0
  145.5670  139.6960  154.4720 C   0  0  0  0  0  0  0  0  0  0  0  0
  145.7530  138.9010  155.3880 O   0  0  0  0  0  0  0  0  0  0  0  0
  144.1980  140.6080  153.2300 H   0  0  0  0  0  0  0  0  0  0  0  0
  146.6930  140.5250  153.8740 C   0  0  0  0  0  2  0  0  0  0  0  0
  146.2250  141.9610  153.6190 C   0  0  0  0  0  2  0  0  0  0  0  0
  146.4250  142.3850  152.1640 C   0  0  0  0  0  2  0  0  0  0  0  0
  146.2280  141.2030  151.2150 C   0  0  0  0  0  2  0  0  0  0  0  0
  144.8890  141.2810  150.4920 C   0  0  0  0  0  2  0  0  0  0  0  0
  143.9220  140.4980  151.1770 O   0  0  0  0  0  0  0  0  0  0  0  0
  144.3200  139.6560  151.4470 H   0  0  0  0  0  0  0  0  0  0  0  0
  142.9020  137.8810  153.7110 C   0  0  0  0  0  2  0  0  0  0  0  0
  139.0000  137.8330  151.8030 C   0  0  0  0  0  0  0  0  0  0  0  0
  139.1610  138.2860  153.1190 C   0  0  0  0  0  3  0  0  0  0  0  0
  140.4180  138.3070  153.7270 C   0  0  0  0  0  3  0  0  0  0  0  0
  141.5450  137.8480  153.0440 C   0  0  0  0  0  0  0  0  0  0  0  0
  141.3830  137.3650  151.7370 C   0  0  0  0  0  3  0  0  0  0  0  0
  140.1290  137.4000  151.0970 C   0  0  0  0  0  0  0  0  0  0  0  0
  136.9910  136.5760  151.5700 C   0  0  0  0  0  1  0  0  0  0  0  0
  137.7700  137.7120  151.2110 O   0  0  0  0  0  0  0  0  0  0  0  0
  140.1540  136.9460  149.7970 O   0  0  0  0  0  0  0  0  0  0  0  0
  141.4430  136.6170  149.2830 C   0  0  0  0  0  1  0  0  0  0  0  0
  2  1  1  0  0  0  0
  2  3  1  0  0  0  0
  3  4  2  0  0  0  0
  5  2  1  0  0  0  0
  6  3  1  0  0  0  0
  7  6  1  0  0  0  0
  8  7  1  0  0  0  0
  9  8  1  0  0  0  0
 10 11  1  0  0  0  0
 10  9  1  0  0  0  0
 11 12  1  0  0  0  0
 13  1  1  0  0  0  0
 14 15  1  0  0  0  0
 15 16  2  0  0  0  0
 17 13  1  0  0  0  0
 17 16  1  0  0  0  0
 18 17  2  0  0  0  0
 19 18  1  0  0  0  0
 19 14  2  0  0  0  0
 21 20  1  0  0  0  0
 21 14  1  0  0  0  0
 22 19  1  0  0  0  0
 23 22  1  0  0  0  0
M  END
>  <MODEL>
3

>  <REMARK>
 VINA RESULT:    -5.474      4.949      7.100
 INTER + INTRA:          -9.991
 INTER:                  -8.934
 INTRA:                  -1.057
 UNBOUND:                -1.156
  Name = CHEMBL1973658
  13 active torsions:
  status: ('A' for Active; 'I' for Inactive)
    1  A    between atoms: C_1  and  O_2
    2  A    between atoms: O_2  and  C_3
    3  A    between atoms: C_6  and  C_7
    4  A    between atoms: C_7  and  C_8
    5  A    between atoms: C_8  and  N_9
    6  A    between atoms: C_10  and  C_12
    7  A    between atoms: C_12  and  C_13
    8  A    between atoms: C_13  and  C_14
    9  A    between atoms: C_14  and  C_15
   10  A    between atoms: C_15  and  C_16
   11  A    between atoms: C_16  and  O_17
   12  A    between atoms: C_19  and  O_20
   13  A    between atoms: O_20  and  C_21
                            x       y       z     vdW  Elec       q    Type
                         _______ _______ _______ _____ _____    ______ ____

>  <TORSDO>
F 11

>  <SCORE>
-5.474

>  <RMSD_LB>
4.949

>  <RMSD_UB>
7.100

$$$$
CHEMBL1973658
 OpenBabel10162523493D

 23 23  0  0  0  0  0  0  0  0999 V2000
  143.5840  138.1210  150.5250 C   0  0  0  0  0  2  0  0  0  0  0  0
  144.6440  138.8340  151.2290 N   0  0  0  0  0  0  0  0  0  0  0  0
  145.9590  138.5420  150.9320 C   0  0  0  0  0  0  0  0  0  0  0  0
  146.2770  137.6760  150.1230 O   0  0  0  0  0  0  0  0  0  0  0  0
  144.4240  139.5120  151.9080 H   0  0  0  0  0  0  0  0  0  0  0  0
  146.9890  139.3370  151.7190 C   0  0  0  0  0  2  0  0  0  0  0  0
  147.2800  140.6720  151.0260 C   0  0  0  0  0  2  0  0  0  0  0  0
  147.5270  141.8010  152.0250 C   0  0  0  0  0  2  0  0  0  0  0  0
  146.2280  142.2150  152.7180 C   0  0  0  0  0  2  0  0  0  0  0  0
  146.3700  142.1950  154.2340 C   0  0  0  0  0  2  0  0  0  0  0  0
  147.4210  141.3170  154.6120 O   0  0  0  0  0  0  0  0  0  0  0  0
  147.0780  140.6470  155.2240 H   0  0  0  0  0  0  0  0  0  0  0  0
  142.8850  137.0510  151.3660 C   0  0  0  0  0  2  0  0  0  0  0  0
  139.6050  138.5910  153.7620 C   0  0  0  0  0  0  0  0  0  0  0  0
  139.3950  138.1130  152.4620 C   0  0  0  0  0  3  0  0  0  0  0  0
  140.4500  137.6120  151.6970 C   0  0  0  0  0  3  0  0  0  0  0  0
  141.7510  137.6010  152.2020 C   0  0  0  0  0  0  0  0  0  0  0  0
  141.9710  138.1070  153.4920 C   0  0  0  0  0  3  0  0  0  0  0  0
  140.9020  138.5550  154.2920 C   0  0  0  0  0  0  0  0  0  0  0  0
  137.7370  138.3010  155.2100 C   0  0  0  0  0  1  0  0  0  0  0  0
  138.6110  139.1740  154.5020 O   0  0  0  0  0  0  0  0  0  0  0  0
  141.2800  138.9620  155.5510 O   0  0  0  0  0  0  0  0  0  0  0  0
  142.4950  139.7050  155.6210 C   0  0  0  0  0  1  0  0  0  0  0  0
  1  2  1  0  0  0  0
  1 13  1  0  0  0  0
  2  5  1  0  0  0  0
  3  2  1  0  0  0  0
  3  6  1  0  0  0  0
  4  3  2  0  0  0  0
  7  6  1  0  0  0  0
  7  8  1  0  0  0  0
  8  9  1  0  0  0  0
  9 10  1  0  0  0  0
 10 11  1  0  0  0  0
 11 12  1  0  0  0  0
 13 17  1  0  0  0  0
 14 19  1  0  0  0  0
 14 21  1  0  0  0  0
 15 14  2  0  0  0  0
 16 17  2  0  0  0  0
 16 15  1  0  0  0  0
 17 18  1  0  0  0  0
 18 19  2  0  0  0  0
 19 22  1  0  0  0  0
 21 20  1  0  0  0  0
 22 23  1  0  0  0  0
M  END
>  <MODEL>
4

>  <REMARK>
 VINA RESULT:    -5.469      5.404      8.639
 INTER + INTRA:          -9.982
 INTER:                  -9.251
 INTRA:                  -0.731
 UNBOUND:                -1.156
  Name = CHEMBL1973658
  13 active torsions:
  status: ('A' for Active; 'I' for Inactive)
    1  A    between atoms: C_1  and  O_2
    2  A    between atoms: O_2  and  C_3
    3  A    between atoms: C_6  and  C_7
    4  A    between atoms: C_7  and  C_8
    5  A    between atoms: C_8  and  N_9
    6  A    between atoms: C_10  and  C_12
    7  A    between atoms: C_12  and  C_13
    8  A    between atoms: C_13  and  C_14
    9  A    between atoms: C_14  and  C_15
   10  A    between atoms: C_15  and  C_16
   11  A    between atoms: C_16  and  O_17
   12  A    between atoms: C_19  and  O_20
   13  A    between atoms: O_20  and  C_21
                            x       y       z     vdW  Elec       q    Type
                         _______ _______ _______ _____ _____    ______ ____

>  <TORSDO>
F 11

>  <SCORE>
-5.469

>  <RMSD_LB>
5.404

>  <RMSD_UB>
8.639

$$$$
CHEMBL1973658
 OpenBabel10162523493D

 23 23  0  0  0  0  0  0  0  0999 V2000
  144.1940  138.6900  154.1180 C   0  0  0  0  0  2  0  0  0  0  0  0
  144.5790  140.0950  154.0650 N   0  0  0  0  0  0  0  0  0  0  0  0
  145.9140  140.4200  153.9400 C   0  0  0  0  0  0  0  0  0  0  0  0
  146.8000  139.5730  153.9110 O   0  0  0  0  0  0  0  0  0  0  0  0
  143.8960  140.8020  154.1180 H   0  0  0  0  0  0  0  0  0  0  0  0
  146.2130  141.9100  153.8940 C   0  0  0  0  0  2  0  0  0  0  0  0
  146.7900  142.2990  152.5290 C   0  0  0  0  0  2  0  0  0  0  0  0
  145.7240  142.3170  151.4340 C   0  0  0  0  0  2  0  0  0  0  0  0
  146.3160  142.7670  150.0980 C   0  0  0  0  0  2  0  0  0  0  0  0
  146.4160  141.6120  149.1100 C   0  0  0  0  0  2  0  0  0  0  0  0
  145.1590  140.9580  149.0000 O   0  0  0  0  0  0  0  0  0  0  0  0
  145.2910  139.9980  149.0310 H   0  0  0  0  0  0  0  0  0  0  0  0
  142.6900  138.4590  154.2770 C   0  0  0  0  0  2  0  0  0  0  0  0
  140.7730  137.1860  150.5920 C   0  0  0  0  0  0  0  0  0  0  0  0
  142.1460  136.9980  150.8020 C   0  0  0  0  0  3  0  0  0  0  0  0
  142.7570  137.4010  151.9900 C   0  0  0  0  0  3  0  0  0  0  0  0
  142.0170  138.0310  152.9910 C   0  0  0  0  0  0  0  0  0  0  0  0
  140.6490  138.2500  152.7730 C   0  0  0  0  0  3  0  0  0  0  0  0
  140.0140  137.7890  151.6030 C   0  0  0  0  0  0  0  0  0  0  0  0
  140.1590  137.9040  148.4060 C   0  0  0  0  0  1  0  0  0  0  0  0
  140.1620  136.8880  149.4030 O   0  0  0  0  0  0  0  0  0  0  0  0
  138.6590  138.0300  151.5730 O   0  0  0  0  0  0  0  0  0  0  0  0
  137.8940  137.3810  152.5860 C   0  0  0  0  0  1  0  0  0  0  0  0
  1 13  1  0  0  0  0
  2  5  1  0  0  0  0
  2  1  1  0  0  0  0
  3  2  1  0  0  0  0
  4  3  2  0  0  0  0
  6  3  1  0  0  0  0
  7  6  1  0  0  0  0
  8  7  1  0  0  0  0
  9  8  1  0  0  0  0
 10  9  1  0  0  0  0
 11 12  1  0  0  0  0
 11 10  1  0  0  0  0
 14 15  2  0  0  0  0
 14 19  1  0  0  0  0
 15 16  1  0  0  0  0
 16 17  2  0  0  0  0
 17 13  1  0  0  0  0
 18 17  1  0  0  0  0
 19 18  2  0  0  0  0
 20 21  1  0  0  0  0
 21 14  1  0  0  0  0
 22 19  1  0  0  0  0
 22 23  1  0  0  0  0
M  END
>  <MODEL>
5

>  <REMARK>
 VINA RESULT:    -5.444      5.586      7.651
 INTER + INTRA:          -9.942
 INTER:                  -9.323
 INTRA:                  -0.619
 UNBOUND:                -1.156
  Name = CHEMBL1973658
  13 active torsions:
  status: ('A' for Active; 'I' for Inactive)
    1  A    between atoms: C_1  and  O_2
    2  A    between atoms: O_2  and  C_3
    3  A    between atoms: C_6  and  C_7
    4  A    between atoms: C_7  and  C_8
    5  A    between atoms: C_8  and  N_9
    6  A    between atoms: C_10  and  C_12
    7  A    between atoms: C_12  and  C_13
    8  A    between atoms: C_13  and  C_14
    9  A    between atoms: C_14  and  C_15
   10  A    between atoms: C_15  and  C_16
   11  A    between atoms: C_16  and  O_17
   12  A    between atoms: C_19  and  O_20
   13  A    between atoms: O_20  and  C_21
                            x       y       z     vdW  Elec       q    Type
                         _______ _______ _______ _____ _____    ______ ____

>  <TORSDO>
F 11

>  <SCORE>
-5.444

>  <RMSD_LB>
5.586

>  <RMSD_UB>
7.651

$$$$
CHEMBL1973658
 OpenBabel10162523493D

 23 23  0  0  0  0  0  0  0  0999 V2000
  143.2560  138.3810  151.1680 C   0  0  0  0  0  2  0  0  0  0  0  0
  144.0770  139.5130  151.5790 N   0  0  0  0  0  0  0  0  0  0  0  0
  144.3700  140.4980  150.6590 C   0  0  0  0  0  0  0  0  0  0  0  0
  143.9980  140.4420  149.4910 O   0  0  0  0  0  0  0  0  0  0  0  0
  144.4200  139.5740  152.5010 H   0  0  0  0  0  0  0  0  0  0  0  0
  145.2310  141.6360  151.1830 C   0  0  0  0  0  2  0  0  0  0  0  0
  145.7310  141.3230  152.5970 C   0  0  0  0  0  2  0  0  0  0  0  0
  146.8140  142.2990  153.0570 C   0  0  0  0  0  2  0  0  0  0  0  0
  148.2100  141.7380  152.7870 C   0  0  0  0  0  2  0  0  0  0  0  0
  148.5780  140.6450  153.7820 C   0  0  0  0  0  2  0  0  0  0  0  0
  148.9450  141.2260  155.0260 O   0  0  0  0  0  0  0  0  0  0  0  0
  148.7290  140.6120  155.7450 H   0  0  0  0  0  0  0  0  0  0  0  0
  142.8400  137.4610  152.3180 C   0  0  0  0  0  2  0  0  0  0  0  0
  139.0820  138.6540  154.1430 C   0  0  0  0  0  0  0  0  0  0  0  0
  140.2950  138.7690  154.8340 C   0  0  0  0  0  3  0  0  0  0  0  0
  141.5020  138.3920  154.2420 C   0  0  0  0  0  3  0  0  0  0  0  0
  141.5250  137.8620  152.9510 C   0  0  0  0  0  0  0  0  0  0  0  0
  140.3090  137.7160  152.2670 C   0  0  0  0  0  3  0  0  0  0  0  0
  139.0960  138.1540  152.8350 C   0  0  0  0  0  0  0  0  0  0  0  0
  137.3320  137.9290  155.5860 C   0  0  0  0  0  1  0  0  0  0  0  0
  137.8730  138.9270  154.7270 O   0  0  0  0  0  0  0  0  0  0  0  0
  138.0060  137.9950  152.0100 O   0  0  0  0  0  0  0  0  0  0  0  0
  138.1560  137.0350  150.9660 C   0  0  0  0  0  1  0  0  0  0  0  0
  1  2  1  0  0  0  0
  1 13  1  0  0  0  0
  2  5  1  0  0  0  0
  3  6  1  0  0  0  0
  3  2  1  0  0  0  0
  4  3  2  0  0  0  0
  6  7  1  0  0  0  0
  7  8  1  0  0  0  0
  9  8  1  0  0  0  0
  9 10  1  0  0  0  0
 10 11  1  0  0  0  0
 11 12  1  0  0  0  0
 13 17  1  0  0  0  0
 14 21  1  0  0  0  0
 14 15  1  0  0  0  0
 16 15  2  0  0  0  0
 17 16  1  0  0  0  0
 18 19  1  0  0  0  0
 18 17  2  0  0  0  0
 19 14  2  0  0  0  0
 21 20  1  0  0  0  0
 22 19  1  0  0  0  0
 23 22  1  0  0  0  0
M  END
>  <MODEL>
6

>  <REMARK>
 VINA RESULT:    -5.433      5.289      7.907
 INTER + INTRA:          -9.924
 INTER:                  -9.362
 INTRA:                  -0.563
 UNBOUND:                -1.156
  Name = CHEMBL1973658
  13 active torsions:
  status: ('A' for Active; 'I' for Inactive)
    1  A    between atoms: C_1  and  O_2
    2  A    between atoms: O_2  and  C_3
    3  A    between atoms: C_6  and  C_7
    4  A    between atoms: C_7  and  C_8
    5  A    between atoms: C_8  and  N_9
    6  A    between atoms: C_10  and  C_12
    7  A    between atoms: C_12  and  C_13
    8  A    between atoms: C_13  and  C_14
    9  A    between atoms: C_14  and  C_15
   10  A    between atoms: C_15  and  C_16
   11  A    between atoms: C_16  and  O_17
   12  A    between atoms: C_19  and  O_20
   13  A    between atoms: O_20  and  C_21
                            x       y       z     vdW  Elec       q    Type
                         _______ _______ _______ _____ _____    ______ ____

>  <TORSDO>
F 11

>  <SCORE>
-5.433

>  <RMSD_LB>
5.289

>  <RMSD_UB>
7.907

$$$$
CHEMBL1973658
 OpenBabel10162523493D

 23 23  0  0  0  0  0  0  0  0999 V2000
  144.5090  138.8990  154.1800 C   0  0  0  0  0  2  0  0  0  0  0  0
  144.7920  140.2810  153.8130 N   0  0  0  0  0  0  0  0  0  0  0  0
  146.0960  140.7270  153.8380 C   0  0  0  0  0  0  0  0  0  0  0  0
  147.0310  140.0170  154.1950 O   0  0  0  0  0  0  0  0  0  0  0  0
  144.0610  140.8880  153.5520 H   0  0  0  0  0  0  0  0  0  0  0  0
  146.2880  142.1820  153.4390 C   0  0  0  0  0  2  0  0  0  0  0  0
  146.7470  142.2830  151.9810 C   0  0  0  0  0  2  0  0  0  0  0  0
  145.5750  142.4670  151.0180 C   0  0  0  0  0  2  0  0  0  0  0  0
  145.3770  141.2240  150.1490 C   0  0  0  0  0  2  0  0  0  0  0  0
  144.0030  140.6030  150.3630 C   0  0  0  0  0  2  0  0  0  0  0  0
  143.3410  140.4470  149.1150 O   0  0  0  0  0  0  0  0  0  0  0  0
  142.7270  141.1850  148.9810 H   0  0  0  0  0  0  0  0  0  0  0  0
  143.0180  138.5770  154.3020 C   0  0  0  0  0  2  0  0  0  0  0  0
  141.2920  137.0430  150.6220 C   0  0  0  0  0  0  0  0  0  0  0  0
  140.4980  137.6600  151.5970 C   0  0  0  0  0  3  0  0  0  0  0  0
  141.0560  138.1590  152.7750 C   0  0  0  0  0  3  0  0  0  0  0  0
  142.4230  138.0280  153.0240 C   0  0  0  0  0  0  0  0  0  0  0  0
  143.2180  137.3840  152.0650 C   0  0  0  0  0  3  0  0  0  0  0  0
  142.6710  136.9350  150.8470 C   0  0  0  0  0  0  0  0  0  0  0  0
  139.7050  137.1570  148.8510 C   0  0  0  0  0  1  0  0  0  0  0  0
  140.7630  136.4610  149.5000 O   0  0  0  0  0  0  0  0  0  0  0  0
  143.5960  136.3800  149.9910 O   0  0  0  0  0  0  0  0  0  0  0  0
  144.8980  136.9600  150.0300 C   0  0  0  0  0  1  0  0  0  0  0  0
  1 13  1  0  0  0  0
  2  3  1  0  0  0  0
  2  1  1  0  0  0  0
  3  4  2  0  0  0  0
  5  2  1  0  0  0  0
  6  3  1  0  0  0  0
  7  6  1  0  0  0  0
  8  7  1  0  0  0  0
  9 10  1  0  0  0  0
  9  8  1  0  0  0  0
 11 10  1  0  0  0  0
 12 11  1  0  0  0  0
 14 19  2  0  0  0  0
 14 15  1  0  0  0  0
 15 16  2  0  0  0  0
 16 17  1  0  0  0  0
 17 13  1  0  0  0  0
 18 17  2  0  0  0  0
 19 18  1  0  0  0  0
 20 21  1  0  0  0  0
 21 14  1  0  0  0  0
 22 23  1  0  0  0  0
 22 19  1  0  0  0  0
M  END
>  <MODEL>
7

>  <REMARK>
 VINA RESULT:    -5.404      5.666      8.236
 INTER + INTRA:          -9.877
 INTER:                  -8.923
 INTRA:                  -0.955
 UNBOUND:                -1.156
  Name = CHEMBL1973658
  13 active torsions:
  status: ('A' for Active; 'I' for Inactive)
    1  A    between atoms: C_1  and  O_2
    2  A    between atoms: O_2  and  C_3
    3  A    between atoms: C_6  and  C_7
    4  A    between atoms: C_7  and  C_8
    5  A    between atoms: C_8  and  N_9
    6  A    between atoms: C_10  and  C_12
    7  A    between atoms: C_12  and  C_13
    8  A    between atoms: C_13  and  C_14
    9  A    between atoms: C_14  and  C_15
   10  A    between atoms: C_15  and  C_16
   11  A    between atoms: C_16  and  O_17
   12  A    between atoms: C_19  and  O_20
   13  A    between atoms: O_20  and  C_21
                            x       y       z     vdW  Elec       q    Type
                         _______ _______ _______ _____ _____    ______ ____

>  <TORSDO>
F 11

>  <SCORE>
-5.404

>  <RMSD_LB>
5.666

>  <RMSD_UB>
8.236

$$$$
CHEMBL1973658
 OpenBabel10162523493D

 23 23  0  0  0  0  0  0  0  0999 V2000
  146.2610  138.6290  154.9000 C   0  0  0  0  0  2  0  0  0  0  0  0
  146.5760  140.0010  154.5210 N   0  0  0  0  0  0  0  0  0  0  0  0
  147.8970  140.3710  154.3790 C   0  0  0  0  0  0  0  0  0  0  0  0
  148.8260  139.5990  154.5970 O   0  0  0  0  0  0  0  0  0  0  0  0
  145.8560  140.6550  154.3710 H   0  0  0  0  0  0  0  0  0  0  0  0
  148.1220  141.8210  153.9820 C   0  0  0  0  0  2  0  0  0  0  0  0
  148.7730  141.9040  152.5980 C   0  0  0  0  0  2  0  0  0  0  0  0
  147.8330  141.4390  151.4870 C   0  0  0  0  0  2  0  0  0  0  0  0
  146.9320  142.5810  151.0150 C   0  0  0  0  0  2  0  0  0  0  0  0
  145.4600  142.1920  151.0650 C   0  0  0  0  0  2  0  0  0  0  0  0
  145.1550  141.6080  152.3240 O   0  0  0  0  0  0  0  0  0  0  0  0
  145.3970  142.2240  153.0330 H   0  0  0  0  0  0  0  0  0  0  0  0
  146.3630  137.6240  153.7510 C   0  0  0  0  0  2  0  0  0  0  0  0
  144.1460  138.8000  150.2050 C   0  0  0  0  0  0  0  0  0  0  0  0
  145.5380  138.6470  150.1750 C   0  0  0  0  0  3  0  0  0  0  0  0
  146.2470  138.2620  151.3140 C   0  0  0  0  0  3  0  0  0  0  0  0
  145.5850  138.0470  152.5240 C   0  0  0  0  0  0  0  0  0  0  0  0
  144.1950  138.2290  152.5660 C   0  0  0  0  0  3  0  0  0  0  0  0
  143.4670  138.5550  151.4060 C   0  0  0  0  0  0  0  0  0  0  0  0
  144.1800  139.7710  148.0310 C   0  0  0  0  0  1  0  0  0  0  0  0
  143.4320  139.2660  149.1320 O   0  0  0  0  0  0  0  0  0  0  0  0
  142.1070  138.6380  151.6050 O   0  0  0  0  0  0  0  0  0  0  0  0
  141.5360  137.6000  152.4000 C   0  0  0  0  0  1  0  0  0  0  0  0
  2  1  1  0  0  0  0
  3  2  1  0  0  0  0
  3  4  2  0  0  0  0
  5  2  1  0  0  0  0
  6  3  1  0  0  0  0
  7  6  1  0  0  0  0
  8  7  1  0  0  0  0
  9 10  1  0  0  0  0
  9  8  1  0  0  0  0
 10 11  1  0  0  0  0
 11 12  1  0  0  0  0
 13  1  1  0  0  0  0
 14 19  1  0  0  0  0
 15 14  2  0  0  0  0
 15 16  1  0  0  0  0
 16 17  2  0  0  0  0
 17 18  1  0  0  0  0
 17 13  1  0  0  0  0
 19 22  1  0  0  0  0
 19 18  2  0  0  0  0
 20 21  1  0  0  0  0
 21 14  1  0  0  0  0
 22 23  1  0  0  0  0
M  END
>  <MODEL>
8

>  <REMARK>
 VINA RESULT:    -5.385      6.900      9.881
 INTER + INTRA:          -9.847
 INTER:                  -8.185
 INTRA:                  -1.662
 UNBOUND:                -1.156
  Name = CHEMBL1973658
  13 active torsions:
  status: ('A' for Active; 'I' for Inactive)
    1  A    between atoms: C_1  and  O_2
    2  A    between atoms: O_2  and  C_3
    3  A    between atoms: C_6  and  C_7
    4  A    between atoms: C_7  and  C_8
    5  A    between atoms: C_8  and  N_9
    6  A    between atoms: C_10  and  C_12
    7  A    between atoms: C_12  and  C_13
    8  A    between atoms: C_13  and  C_14
    9  A    between atoms: C_14  and  C_15
   10  A    between atoms: C_15  and  C_16
   11  A    between atoms: C_16  and  O_17
   12  A    between atoms: C_19  and  O_20
   13  A    between atoms: O_20  and  C_21
                            x       y       z     vdW  Elec       q    Type
                         _______ _______ _______ _____ _____    ______ ____

>  <TORSDO>
F 11

>  <SCORE>
-5.385

>  <RMSD_LB>
6.900

>  <RMSD_UB>
9.881

$$$$
CHEMBL1973658
 OpenBabel10162523493D

 23 23  0  0  0  0  0  0  0  0999 V2000
  147.1830  141.8720  154.2350 C   0  0  0  0  0  2  0  0  0  0  0  0
  147.1190  140.4470  154.5350 N   0  0  0  0  0  0  0  0  0  0  0  0
  148.2550  139.6790  154.3850 C   0  0  0  0  0  0  0  0  0  0  0  0
  149.3140  140.1400  153.9700 O   0  0  0  0  0  0  0  0  0  0  0  0
  146.2770  140.0380  154.8400 H   0  0  0  0  0  0  0  0  0  0  0  0
  148.0870  138.2060  154.7230 C   0  0  0  0  0  2  0  0  0  0  0  0
  146.6040  137.8580  154.8840 C   0  0  0  0  0  2  0  0  0  0  0  0
  146.1450  136.8040  153.8780 C   0  0  0  0  0  2  0  0  0  0  0  0
  146.8650  136.9700  152.5390 C   0  0  0  0  0  2  0  0  0  0  0  0
  146.1080  136.2880  151.4070 C   0  0  0  0  0  2  0  0  0  0  0  0
  145.8800  137.2110  150.3510 O   0  0  0  0  0  0  0  0  0  0  0  0
  146.7230  137.4230  149.9200 H   0  0  0  0  0  0  0  0  0  0  0  0
  145.9710  142.4040  153.4670 C   0  0  0  0  0  2  0  0  0  0  0  0
  145.8160  140.9290  149.3830 C   0  0  0  0  0  0  0  0  0  0  0  0
  146.7760  141.8690  149.7820 C   0  0  0  0  0  3  0  0  0  0  0  0
  146.8280  142.3350  151.0970 C   0  0  0  0  0  3  0  0  0  0  0  0
  145.9020  141.8950  152.0440 C   0  0  0  0  0  0  0  0  0  0  0  0
  144.9200  140.9780  151.6420 C   0  0  0  0  0  3  0  0  0  0  0  0
  144.9010  140.4560  150.3330 C   0  0  0  0  0  0  0  0  0  0  0  0
  146.6590  139.6200  147.5820 C   0  0  0  0  0  1  0  0  0  0  0  0
  145.6790  140.5230  148.0820 O   0  0  0  0  0  0  0  0  0  0  0  0
  143.9120  139.5230  150.1190 O   0  0  0  0  0  0  0  0  0  0  0  0
  142.6280  140.0490  149.7890 C   0  0  0  0  0  1  0  0  0  0  0  0
  1  2  1  0  0  0  0
  2  5  1  0  0  0  0
  3  2  1  0  0  0  0
  3  6  1  0  0  0  0
  4  3  2  0  0  0  0
  6  7  1  0  0  0  0
  8  7  1  0  0  0  0
  9  8  1  0  0  0  0
 10  9  1  0  0  0  0
 11 10  1  0  0  0  0
 12 11  1  0  0  0  0
 13  1  1  0  0  0  0
 14 15  2  0  0  0  0
 14 19  1  0  0  0  0
 15 16  1  0  0  0  0
 16 17  2  0  0  0  0
 17 13  1  0  0  0  0
 18 17  1  0  0  0  0
 19 18  2  0  0  0  0
 20 21  1  0  0  0  0
 21 14  1  0  0  0  0
 22 19  1  0  0  0  0
 23 22  1  0  0  0  0
M  END
>  <MODEL>
9

>  <REMARK>
 VINA RESULT:    -5.364      8.705     10.901
 INTER + INTRA:          -9.812
 INTER:                  -8.656
 INTRA:                  -1.156
 UNBOUND:                -1.156
  Name = CHEMBL1973658
  13 active torsions:
  status: ('A' for Active; 'I' for Inactive)
    1  A    between atoms: C_1  and  O_2
    2  A    between atoms: O_2  and  C_3
    3  A    between atoms: C_6  and  C_7
    4  A    between atoms: C_7  and  C_8
    5  A    between atoms: C_8  and  N_9
    6  A    between atoms: C_10  and  C_12
    7  A    between atoms: C_12  and  C_13
    8  A    between atoms: C_13  and  C_14
    9  A    between atoms: C_14  and  C_15
   10  A    between atoms: C_15  and  C_16
   11  A    between atoms: C_16  and  O_17
   12  A    between atoms: C_19  and  O_20
   13  A    between atoms: O_20  and  C_21
                            x       y       z     vdW  Elec       q    Type
                         _______ _______ _______ _____ _____    ______ ____

>  <TORSDO>
F 11

>  <SCORE>
-5.364

>  <RMSD_LB>
8.705

>  <RMSD_UB>
10.901

$$$$
