CHEMBL2442093
 OpenBabel10162523363D

 26 27  0  0  0  0  0  0  0  0999 V2000
  134.1480  134.8190  152.6930 N   0  0  0  0  0  0  0  0  0  0  0  0
  134.4470  135.5150  153.8460 C   0  0  0  0  0  0  0  0  0  0  0  0
  133.9380  136.6000  154.1190 O   0  0  0  0  0  0  0  0  0  0  0  0
  134.5950  133.9580  152.5220 H   0  0  0  0  0  0  0  0  0  0  0  0
  133.1940  135.3190  151.7290 C   0  0  0  0  0  2  0  0  0  0  0  0
  133.7740  133.5870  147.7980 C   0  0  0  0  0  0  0  0  0  0  0  0
  133.9020  132.8110  148.9590 C   0  0  0  0  0  3  0  0  0  0  0  0
  133.7180  133.3690  150.2250 C   0  0  0  0  0  3  0  0  0  0  0  0
  133.4050  134.7230  150.3640 C   0  0  0  0  0  0  0  0  0  0  0  0
  133.3080  135.5090  149.2090 C   0  0  0  0  0  3  0  0  0  0  0  0
  133.4710  134.9530  147.9300 C   0  0  0  0  0  0  0  0  0  0  0  0
  135.3720  132.8710  146.1890 C   0  0  0  0  0  1  0  0  0  0  0  0
  134.0080  133.0820  146.5450 O   0  0  0  0  0  0  0  0  0  0  0  0
  133.3460  135.8800  146.9250 O   0  0  0  0  0  0  0  0  0  0  0  0
  132.3400  136.8730  147.0880 C   0  0  0  0  0  1  0  0  0  0  0  0
  135.5100  134.8620  154.7160 C   0  0  0  0  0  2  0  0  0  0  0  0
  136.0830  135.7700  155.7750 C   0  0  0  0  0  0  0  0  0  0  0  0
  135.8220  135.5430  157.1280 C   0  0  0  0  0  3  0  0  0  0  0  0
  136.3020  136.4180  158.1060 C   0  0  0  0  0  3  0  0  0  0  0  0
  137.0520  137.5500  157.7570 C   0  0  0  0  0  0  0  0  0  0  0  0
  137.3530  137.7650  156.4000 C   0  0  0  0  0  0  0  0  0  0  0  0
  136.8470  136.8900  155.4250 C   0  0  0  0  0  3  0  0  0  0  0  0
  137.4810  138.4780  158.6670 O   0  0  0  0  0  0  0  0  0  0  0  0
  136.9830  138.3880  159.9950 C   0  0  0  0  0  1  0  0  0  0  0  0
  138.0710  138.8100  155.8700 O   0  0  0  0  0  0  0  0  0  0  0  0
  138.9460  138.4960  154.7950 C   0  0  0  0  0  1  0  0  0  0  0  0
  1  2  1  0  0  0  0
  2  3  2  0  0  0  0
  2 16  1  0  0  0  0
  4  1  1  0  0  0  0
  5  1  1  0  0  0  0
  6 11  2  0  0  0  0
  6  7  1  0  0  0  0
  7  8  2  0  0  0  0
  8  9  1  0  0  0  0
  9  5  1  0  0  0  0
 10  9  2  0  0  0  0
 11 10  1  0  0  0  0
 12 13  1  0  0  0  0
 13  6  1  0  0  0  0
 14 15  1  0  0  0  0
 14 11  1  0  0  0  0
 16 17  1  0  0  0  0
 17 18  1  0  0  0  0
 18 19  2  0  0  0  0
 20 19  1  0  0  0  0
 20 23  1  0  0  0  0
 21 20  2  0  0  0  0
 22 17  2  0  0  0  0
 22 21  1  0  0  0  0
 23 24  1  0  0  0  0
 25 21  1  0  0  0  0
 26 25  1  0  0  0  0
M  END
>  <MODEL>
1

>  <REMARK>
 VINA RESULT:    -7.571      0.000      0.000
 INTER + INTRA:         -11.693
 INTER:                 -11.232
 INTRA:                  -0.462
 UNBOUND:                -0.582
  Name = CHEMBL2442093
  12 active torsions:
  status: ('A' for Active; 'I' for Inactive)
    1  A    between atoms: C_1  and  O_2
    2  A    between atoms: O_2  and  C_3
    3  A    between atoms: C_6  and  C_7
    4  A    between atoms: C_7  and  N_8
    5  A    between atoms: C_9  and  C_11
    6  A    between atoms: C_11  and  C_12
    7  A    between atoms: C_15  and  O_16
    8  A    between atoms: O_16  and  C_17
    9  A    between atoms: C_18  and  O_19
   10  A    between atoms: O_19  and  C_20
   11  A    between atoms: C_23  and  O_24
   12  A    between atoms: O_24  and  C_25
                            x       y       z     vdW  Elec       q    Type
                         _______ _______ _______ _____ _____    ______ ____

>  <TORSDO>
F 8

>  <SCORE>
-7.571

>  <RMSD_LB>
0.000

>  <RMSD_UB>
0.000

$$$$
CHEMBL2442093
 OpenBabel10162523363D

 26 27  0  0  0  0  0  0  0  0999 V2000
  134.6980  134.5720  152.4550 N   0  0  0  0  0  0  0  0  0  0  0  0
  134.8920  135.7520  153.1420 C   0  0  0  0  0  0  0  0  0  0  0  0
  133.9970  136.5770  153.3140 O   0  0  0  0  0  0  0  0  0  0  0  0
  135.4570  133.9540  152.3390 H   0  0  0  0  0  0  0  0  0  0  0  0
  133.4110  134.2170  151.9020 C   0  0  0  0  0  2  0  0  0  0  0  0
  133.6070  133.4060  147.6490 C   0  0  0  0  0  0  0  0  0  0  0  0
  134.1270  132.5000  148.5850 C   0  0  0  0  0  3  0  0  0  0  0  0
  134.0670  132.7630  149.9540 C   0  0  0  0  0  3  0  0  0  0  0  0
  133.4870  133.9430  150.4250 C   0  0  0  0  0  0  0  0  0  0  0  0
  132.9950  134.8650  149.4920 C   0  0  0  0  0  3  0  0  0  0  0  0
  133.0330  134.6010  148.1130 C   0  0  0  0  0  0  0  0  0  0  0  0
  135.0020  133.3610  145.7230 C   0  0  0  0  0  1  0  0  0  0  0  0
  133.7060  133.2040  146.2960 O   0  0  0  0  0  0  0  0  0  0  0  0
  132.5110  135.6230  147.3600 O   0  0  0  0  0  0  0  0  0  0  0  0
  132.8990  136.9450  147.7120 C   0  0  0  0  0  1  0  0  0  0  0  0
  136.3220  135.9810  153.6080 C   0  0  0  0  0  2  0  0  0  0  0  0
  136.4440  136.3550  155.0630 C   0  0  0  0  0  0  0  0  0  0  0  0
  137.0630  137.5480  155.4450 C   0  0  0  0  0  3  0  0  0  0  0  0
  137.2310  137.8670  156.7950 C   0  0  0  0  0  3  0  0  0  0  0  0
  136.7900  136.9980  157.8030 C   0  0  0  0  0  0  0  0  0  0  0  0
  136.1300  135.8140  157.4280 C   0  0  0  0  0  0  0  0  0  0  0  0
  135.9860  135.4940  156.0680 C   0  0  0  0  0  3  0  0  0  0  0  0
  136.9970  137.2270  159.1360 O   0  0  0  0  0  0  0  0  0  0  0  0
  136.0610  138.0430  159.8250 C   0  0  0  0  0  1  0  0  0  0  0  0
  135.6310  134.8470  158.2670 O   0  0  0  0  0  0  0  0  0  0  0  0
  134.2460  134.9300  158.5760 C   0  0  0  0  0  1  0  0  0  0  0  0
  1  2  1  0  0  0  0
  2  3  2  0  0  0  0
  2 16  1  0  0  0  0
  4  1  1  0  0  0  0
  5  1  1  0  0  0  0
  6 11  2  0  0  0  0
  6  7  1  0  0  0  0
  7  8  2  0  0  0  0
  8  9  1  0  0  0  0
  9  5  1  0  0  0  0
 10  9  2  0  0  0  0
 11 10  1  0  0  0  0
 12 13  1  0  0  0  0
 13  6  1  0  0  0  0
 14 15  1  0  0  0  0
 14 11  1  0  0  0  0
 16 17  1  0  0  0  0
 17 18  2  0  0  0  0
 17 22  1  0  0  0  0
 18 19  1  0  0  0  0
 19 20  2  0  0  0  0
 20 23  1  0  0  0  0
 21 20  1  0  0  0  0
 21 25  1  0  0  0  0
 22 21  2  0  0  0  0
 23 24  1  0  0  0  0
 25 26  1  0  0  0  0
M  END
>  <MODEL>
2

>  <REMARK>
 VINA RESULT:    -7.519      1.229      2.141
 INTER + INTRA:         -11.617
 INTER:                 -10.894
 INTRA:                  -0.723
 UNBOUND:                -0.582
  Name = CHEMBL2442093
  12 active torsions:
  status: ('A' for Active; 'I' for Inactive)
    1  A    between atoms: C_1  and  O_2
    2  A    between atoms: O_2  and  C_3
    3  A    between atoms: C_6  and  C_7
    4  A    between atoms: C_7  and  N_8
    5  A    between atoms: C_9  and  C_11
    6  A    between atoms: C_11  and  C_12
    7  A    between atoms: C_15  and  O_16
    8  A    between atoms: O_16  and  C_17
    9  A    between atoms: C_18  and  O_19
   10  A    between atoms: O_19  and  C_20
   11  A    between atoms: C_23  and  O_24
   12  A    between atoms: O_24  and  C_25
                            x       y       z     vdW  Elec       q    Type
                         _______ _______ _______ _____ _____    ______ ____

>  <TORSDO>
F 8

>  <SCORE>
-7.519

>  <RMSD_LB>
1.229

>  <RMSD_UB>
2.141

$$$$
CHEMBL2442093
 OpenBabel10162523363D

 26 27  0  0  0  0  0  0  0  0999 V2000
  134.0540  134.7960  152.6540 N   0  0  0  0  0  0  0  0  0  0  0  0
  134.1180  135.0600  154.0070 C   0  0  0  0  0  0  0  0  0  0  0  0
  133.1710  135.5180  154.6410 O   0  0  0  0  0  0  0  0  0  0  0  0
  134.8490  134.4390  152.1960 H   0  0  0  0  0  0  0  0  0  0  0  0
  132.8480  135.0280  151.8910 C   0  0  0  0  0  2  0  0  0  0  0  0
  133.5200  134.7880  147.6160 C   0  0  0  0  0  0  0  0  0  0  0  0
  133.0510  133.6830  148.3400 C   0  0  0  0  0  3  0  0  0  0  0  0
  132.8380  133.7580  149.7170 C   0  0  0  0  0  3  0  0  0  0  0  0
  133.0920  134.9440  150.4090 C   0  0  0  0  0  0  0  0  0  0  0  0
  133.5910  136.0410  149.6960 C   0  0  0  0  0  3  0  0  0  0  0  0
  133.7900  135.9820  148.3080 C   0  0  0  0  0  0  0  0  0  0  0  0
  134.3760  133.5120  145.8010 C   0  0  0  0  0  1  0  0  0  0  0  0
  133.7980  134.7260  146.2750 O   0  0  0  0  0  0  0  0  0  0  0  0
  134.2890  137.1500  147.7890 O   0  0  0  0  0  0  0  0  0  0  0  0
  135.7040  137.2900  147.7630 C   0  0  0  0  0  1  0  0  0  0  0  0
  135.4810  134.8030  154.6320 C   0  0  0  0  0  2  0  0  0  0  0  0
  136.3830  136.0110  154.6620 C   0  0  0  0  0  0  0  0  0  0  0  0
  136.9570  136.5040  153.4880 C   0  0  0  0  0  3  0  0  0  0  0  0
  137.8400  137.5860  153.5220 C   0  0  0  0  0  3  0  0  0  0  0  0
  138.1800  138.2030  154.7340 C   0  0  0  0  0  0  0  0  0  0  0  0
  137.5760  137.7400  155.9170 C   0  0  0  0  0  0  0  0  0  0  0  0
  136.7060  136.6380  155.8730 C   0  0  0  0  0  3  0  0  0  0  0  0
  139.0960  139.2150  154.8310 O   0  0  0  0  0  0  0  0  0  0  0  0
  140.4720  138.8800  154.7350 C   0  0  0  0  0  1  0  0  0  0  0  0
  137.7820  138.2160  157.1900 O   0  0  0  0  0  0  0  0  0  0  0  0
  136.8310  137.8270  158.1730 C   0  0  0  0  0  1  0  0  0  0  0  0
  1  2  1  0  0  0  0
  2 16  1  0  0  0  0
  2  3  2  0  0  0  0
  4  1  1  0  0  0  0
  5  1  1  0  0  0  0
  6 11  2  0  0  0  0
  6  7  1  0  0  0  0
  7  8  2  0  0  0  0
  8  9  1  0  0  0  0
  9  5  1  0  0  0  0
 10  9  2  0  0  0  0
 11 10  1  0  0  0  0
 12 13  1  0  0  0  0
 13  6  1  0  0  0  0
 14 11  1  0  0  0  0
 15 14  1  0  0  0  0
 16 17  1  0  0  0  0
 17 22  1  0  0  0  0
 18 19  1  0  0  0  0
 18 17  2  0  0  0  0
 19 20  2  0  0  0  0
 20 23  1  0  0  0  0
 20 21  1  0  0  0  0
 21 25  1  0  0  0  0
 22 21  2  0  0  0  0
 24 23  1  0  0  0  0
 25 26  1  0  0  0  0
M  END
>  <MODEL>
3

>  <REMARK>
 VINA RESULT:    -7.141      1.288      2.516
 INTER + INTRA:         -11.062
 INTER:                 -10.406
 INTRA:                  -0.656
 UNBOUND:                -0.582
  Name = CHEMBL2442093
  12 active torsions:
  status: ('A' for Active; 'I' for Inactive)
    1  A    between atoms: C_1  and  O_2
    2  A    between atoms: O_2  and  C_3
    3  A    between atoms: C_6  and  C_7
    4  A    between atoms: C_7  and  N_8
    5  A    between atoms: C_9  and  C_11
    6  A    between atoms: C_11  and  C_12
    7  A    between atoms: C_15  and  O_16
    8  A    between atoms: O_16  and  C_17
    9  A    between atoms: C_18  and  O_19
   10  A    between atoms: O_19  and  C_20
   11  A    between atoms: C_23  and  O_24
   12  A    between atoms: O_24  and  C_25
                            x       y       z     vdW  Elec       q    Type
                         _______ _______ _______ _____ _____    ______ ____

>  <TORSDO>
F 8

>  <SCORE>
-7.141

>  <RMSD_LB>
1.288

>  <RMSD_UB>
2.516

$$$$
CHEMBL2442093
 OpenBabel10162523363D

 26 27  0  0  0  0  0  0  0  0999 V2000
  137.7040  137.0400  154.6750 N   0  0  0  0  0  0  0  0  0  0  0  0
  137.9790  138.3790  154.8580 C   0  0  0  0  0  0  0  0  0  0  0  0
  137.1610  139.1690  155.3250 O   0  0  0  0  0  0  0  0  0  0  0  0
  138.3950  136.4560  154.2860 H   0  0  0  0  0  0  0  0  0  0  0  0
  136.4270  136.4690  155.0420 C   0  0  0  0  0  2  0  0  0  0  0  0
  134.6880  134.1300  151.8350 C   0  0  0  0  0  0  0  0  0  0  0  0
  134.3420  133.8960  153.1730 C   0  0  0  0  0  3  0  0  0  0  0  0
  134.9050  134.6460  154.2060 C   0  0  0  0  0  3  0  0  0  0  0  0
  135.8330  135.6520  153.9280 C   0  0  0  0  0  0  0  0  0  0  0  0
  136.2050  135.8680  152.5950 C   0  0  0  0  0  3  0  0  0  0  0  0
  135.6300  135.1320  151.5470 C   0  0  0  0  0  0  0  0  0  0  0  0
  132.8820  133.6780  150.3540 C   0  0  0  0  0  1  0  0  0  0  0  0
  134.1990  133.3690  150.8050 O   0  0  0  0  0  0  0  0  0  0  0  0
  136.1240  135.4820  150.3150 O   0  0  0  0  0  0  0  0  0  0  0  0
  135.3340  136.3700  149.5340 C   0  0  0  0  0  1  0  0  0  0  0  0
  139.3530  138.8110  154.3670 C   0  0  0  0  0  2  0  0  0  0  0  0
  139.6800  138.3510  152.9690 C   0  0  0  0  0  0  0  0  0  0  0  0
  140.9140  137.7640  152.6810 C   0  0  0  0  0  3  0  0  0  0  0  0
  141.2430  137.3930  151.3740 C   0  0  0  0  0  3  0  0  0  0  0  0
  140.3470  137.6050  150.3170 C   0  0  0  0  0  0  0  0  0  0  0  0
  139.0870  138.1590  150.6030 C   0  0  0  0  0  0  0  0  0  0  0  0
  138.7760  138.5470  151.9170 C   0  0  0  0  0  3  0  0  0  0  0  0
  140.6490  137.3300  149.0100 O   0  0  0  0  0  0  0  0  0  0  0  0
  141.2990  138.3380  148.2500 C   0  0  0  0  0  1  0  0  0  0  0  0
  138.0850  138.4380  149.7050 O   0  0  0  0  0  0  0  0  0  0  0  0
  137.9310  139.8010  149.3310 C   0  0  0  0  0  1  0  0  0  0  0  0
  1  2  1  0  0  0  0
  1  5  1  0  0  0  0
  2  3  2  0  0  0  0
  4  1  1  0  0  0  0
  6  7  1  0  0  0  0
  7  8  2  0  0  0  0
  9  8  1  0  0  0  0
  9  5  1  0  0  0  0
 10  9  2  0  0  0  0
 11  6  2  0  0  0  0
 11 10  1  0  0  0  0
 12 13  1  0  0  0  0
 13  6  1  0  0  0  0
 14 11  1  0  0  0  0
 15 14  1  0  0  0  0
 16  2  1  0  0  0  0
 17 16  1  0  0  0  0
 18 17  1  0  0  0  0
 19 18  2  0  0  0  0
 20 21  2  0  0  0  0
 20 19  1  0  0  0  0
 21 22  1  0  0  0  0
 22 17  2  0  0  0  0
 23 20  1  0  0  0  0
 24 23  1  0  0  0  0
 25 21  1  0  0  0  0
 26 25  1  0  0  0  0
M  END
>  <MODEL>
4

>  <REMARK>
 VINA RESULT:    -7.133      3.693      6.023
 INTER + INTRA:         -11.050
 INTER:                  -9.842
 INTRA:                  -1.209
 UNBOUND:                -0.582
  Name = CHEMBL2442093
  12 active torsions:
  status: ('A' for Active; 'I' for Inactive)
    1  A    between atoms: C_1  and  O_2
    2  A    between atoms: O_2  and  C_3
    3  A    between atoms: C_6  and  C_7
    4  A    between atoms: C_7  and  N_8
    5  A    between atoms: C_9  and  C_11
    6  A    between atoms: C_11  and  C_12
    7  A    between atoms: C_15  and  O_16
    8  A    between atoms: O_16  and  C_17
    9  A    between atoms: C_18  and  O_19
   10  A    between atoms: O_19  and  C_20
   11  A    between atoms: C_23  and  O_24
   12  A    between atoms: O_24  and  C_25
                            x       y       z     vdW  Elec       q    Type
                         _______ _______ _______ _____ _____    ______ ____

>  <TORSDO>
F 8

>  <SCORE>
-7.133

>  <RMSD_LB>
3.693

>  <RMSD_UB>
6.023

$$$$
CHEMBL2442093
 OpenBabel10162523363D

 26 27  0  0  0  0  0  0  0  0999 V2000
  134.7400  135.1930  153.1990 N   0  0  0  0  0  0  0  0  0  0  0  0
  134.9610  134.3450  152.1340 C   0  0  0  0  0  0  0  0  0  0  0  0
  136.0880  134.0380  151.7510 O   0  0  0  0  0  0  0  0  0  0  0  0
  133.8140  135.4120  153.4540 H   0  0  0  0  0  0  0  0  0  0  0  0
  135.8320  135.7680  153.9530 C   0  0  0  0  0  2  0  0  0  0  0  0
  135.3620  135.1470  158.2160 C   0  0  0  0  0  0  0  0  0  0  0  0
  134.4330  134.6310  157.3010 C   0  0  0  0  0  3  0  0  0  0  0  0
  134.5820  134.8340  155.9290 C   0  0  0  0  0  3  0  0  0  0  0  0
  135.6650  135.5630  155.4340 C   0  0  0  0  0  0  0  0  0  0  0  0
  136.5780  136.1070  156.3450 C   0  0  0  0  0  3  0  0  0  0  0  0
  136.4480  135.8920  157.7270 C   0  0  0  0  0  0  0  0  0  0  0  0
  133.9280  135.3490  160.1030 C   0  0  0  0  0  1  0  0  0  0  0  0
  135.2090  135.0170  159.5720 O   0  0  0  0  0  0  0  0  0  0  0  0
  137.4320  136.5080  158.4580 O   0  0  0  0  0  0  0  0  0  0  0  0
  137.8530  137.7930  158.0160 C   0  0  0  0  0  1  0  0  0  0  0  0
  133.6970  133.8780  151.4290 C   0  0  0  0  0  2  0  0  0  0  0  0
  133.7770  133.9260  149.9240 C   0  0  0  0  0  0  0  0  0  0  0  0
  133.9670  132.7580  149.1810 C   0  0  0  0  0  3  0  0  0  0  0  0
  134.1020  132.8080  147.7910 C   0  0  0  0  0  3  0  0  0  0  0  0
  134.0570  134.0300  147.1050 C   0  0  0  0  0  0  0  0  0  0  0  0
  133.8260  135.2060  147.8400 C   0  0  0  0  0  0  0  0  0  0  0  0
  133.7130  135.1460  149.2380 C   0  0  0  0  0  3  0  0  0  0  0  0
  134.2580  134.1410  145.7560 O   0  0  0  0  0  0  0  0  0  0  0  0
  135.3340  133.4130  145.1800 C   0  0  0  0  0  1  0  0  0  0  0  0
  133.7490  136.4860  147.3450 O   0  0  0  0  0  0  0  0  0  0  0  0
  132.4430  137.0170  147.1620 C   0  0  0  0  0  1  0  0  0  0  0  0
  1  4  1  0  0  0  0
  1  5  1  0  0  0  0
  2  1  1  0  0  0  0
  3  2  2  0  0  0  0
  5  9  1  0  0  0  0
  6 13  1  0  0  0  0
  7  6  2  0  0  0  0
  8  7  1  0  0  0  0
  9  8  2  0  0  0  0
  9 10  1  0  0  0  0
 10 11  2  0  0  0  0
 11  6  1  0  0  0  0
 11 14  1  0  0  0  0
 13 12  1  0  0  0  0
 15 14  1  0  0  0  0
 16  2  1  0  0  0  0
 17 16  1  0  0  0  0
 18 17  2  0  0  0  0
 19 18  1  0  0  0  0
 20 19  2  0  0  0  0
 20 21  1  0  0  0  0
 21 22  2  0  0  0  0
 22 17  1  0  0  0  0
 23 20  1  0  0  0  0
 24 23  1  0  0  0  0
 25 21  1  0  0  0  0
 26 25  1  0  0  0  0
M  END
>  <MODEL>
5

>  <REMARK>
 VINA RESULT:    -7.078      1.707      9.613
 INTER + INTRA:         -10.970
 INTER:                 -10.292
 INTRA:                  -0.677
 UNBOUND:                -0.582
  Name = CHEMBL2442093
  12 active torsions:
  status: ('A' for Active; 'I' for Inactive)
    1  A    between atoms: C_1  and  O_2
    2  A    between atoms: O_2  and  C_3
    3  A    between atoms: C_6  and  C_7
    4  A    between atoms: C_7  and  N_8
    5  A    between atoms: C_9  and  C_11
    6  A    between atoms: C_11  and  C_12
    7  A    between atoms: C_15  and  O_16
    8  A    between atoms: O_16  and  C_17
    9  A    between atoms: C_18  and  O_19
   10  A    between atoms: O_19  and  C_20
   11  A    between atoms: C_23  and  O_24
   12  A    between atoms: O_24  and  C_25
                            x       y       z     vdW  Elec       q    Type
                         _______ _______ _______ _____ _____    ______ ____

>  <TORSDO>
F 8

>  <SCORE>
-7.078

>  <RMSD_LB>
1.707

>  <RMSD_UB>
9.613

$$$$
CHEMBL2442093
 OpenBabel10162523363D

 26 27  0  0  0  0  0  0  0  0999 V2000
  134.7420  134.9860  151.8570 N   0  0  0  0  0  0  0  0  0  0  0  0
  134.8020  135.8280  152.9480 C   0  0  0  0  0  0  0  0  0  0  0  0
  133.9290  136.6560  153.1980 O   0  0  0  0  0  0  0  0  0  0  0  0
  135.4770  134.3500  151.7000 H   0  0  0  0  0  0  0  0  0  0  0  0
  133.6260  135.0110  150.9380 C   0  0  0  0  0  2  0  0  0  0  0  0
  134.5510  133.0920  147.1630 C   0  0  0  0  0  0  0  0  0  0  0  0
  134.3500  132.3400  148.3300 C   0  0  0  0  0  3  0  0  0  0  0  0
  134.0550  132.9570  149.5460 C   0  0  0  0  0  3  0  0  0  0  0  0
  133.9580  134.3480  149.6290 C   0  0  0  0  0  0  0  0  0  0  0  0
  134.1890  135.1050  148.4740 C   0  0  0  0  0  3  0  0  0  0  0  0
  134.4660  134.4920  147.2410 C   0  0  0  0  0  0  0  0  0  0  0  0
  136.2410  132.0430  145.8600 C   0  0  0  0  0  1  0  0  0  0  0  0
  134.9010  132.5180  145.9690 O   0  0  0  0  0  0  0  0  0  0  0  0
  134.6690  135.3970  146.2290 O   0  0  0  0  0  0  0  0  0  0  0  0
  135.9840  135.9220  146.0900 C   0  0  0  0  0  1  0  0  0  0  0  0
  136.0730  135.6970  153.7730 C   0  0  0  0  0  2  0  0  0  0  0  0
  135.8320  135.4380  155.2390 C   0  0  0  0  0  0  0  0  0  0  0  0
  134.7790  134.6200  155.6560 C   0  0  0  0  0  3  0  0  0  0  0  0
  134.5180  134.4280  157.0150 C   0  0  0  0  0  3  0  0  0  0  0  0
  135.2990  135.0530  157.9970 C   0  0  0  0  0  0  0  0  0  0  0  0
  136.3860  135.8460  157.5860 C   0  0  0  0  0  0  0  0  0  0  0  0
  136.6260  136.0490  156.2180 C   0  0  0  0  0  3  0  0  0  0  0  0
  135.0390  134.9580  159.3370 O   0  0  0  0  0  0  0  0  0  0  0  0
  134.0820  135.8480  159.8950 C   0  0  0  0  0  1  0  0  0  0  0  0
  137.2580  136.5330  158.3960 O   0  0  0  0  0  0  0  0  0  0  0  0
  137.9340  137.6360  157.8080 C   0  0  0  0  0  1  0  0  0  0  0  0
  1  2  1  0  0  0  0
  2  3  2  0  0  0  0
  2 16  1  0  0  0  0
  4  1  1  0  0  0  0
  5  1  1  0  0  0  0
  6 11  2  0  0  0  0
  6  7  1  0  0  0  0
  7  8  2  0  0  0  0
  8  9  1  0  0  0  0
  9  5  1  0  0  0  0
 10  9  2  0  0  0  0
 11 10  1  0  0  0  0
 12 13  1  0  0  0  0
 13  6  1  0  0  0  0
 14 11  1  0  0  0  0
 15 14  1  0  0  0  0
 16 17  1  0  0  0  0
 17 18  2  0  0  0  0
 17 22  1  0  0  0  0
 18 19  1  0  0  0  0
 19 20  2  0  0  0  0
 20 23  1  0  0  0  0
 21 20  1  0  0  0  0
 21 25  1  0  0  0  0
 22 21  2  0  0  0  0
 23 24  1  0  0  0  0
 26 25  1  0  0  0  0
M  END
>  <MODEL>
6

>  <REMARK>
 VINA RESULT:    -7.068      1.620      2.189
 INTER + INTRA:         -10.956
 INTER:                 -10.366
 INTRA:                  -0.589
 UNBOUND:                -0.582
  Name = CHEMBL2442093
  12 active torsions:
  status: ('A' for Active; 'I' for Inactive)
    1  A    between atoms: C_1  and  O_2
    2  A    between atoms: O_2  and  C_3
    3  A    between atoms: C_6  and  C_7
    4  A    between atoms: C_7  and  N_8
    5  A    between atoms: C_9  and  C_11
    6  A    between atoms: C_11  and  C_12
    7  A    between atoms: C_15  and  O_16
    8  A    between atoms: O_16  and  C_17
    9  A    between atoms: C_18  and  O_19
   10  A    between atoms: O_19  and  C_20
   11  A    between atoms: C_23  and  O_24
   12  A    between atoms: O_24  and  C_25
                            x       y       z     vdW  Elec       q    Type
                         _______ _______ _______ _____ _____    ______ ____

>  <TORSDO>
F 8

>  <SCORE>
-7.068

>  <RMSD_LB>
1.620

>  <RMSD_UB>
2.189

$$$$
CHEMBL2442093
 OpenBabel10162523363D

 26 27  0  0  0  0  0  0  0  0999 V2000
  136.1540  135.4890  154.3530 N   0  0  0  0  0  0  0  0  0  0  0  0
  134.8930  135.3890  153.8030 C   0  0  0  0  0  0  0  0  0  0  0  0
  134.0770  136.3080  153.8370 O   0  0  0  0  0  0  0  0  0  0  0  0
  136.7610  134.7160  154.3060 H   0  0  0  0  0  0  0  0  0  0  0  0
  136.6080  136.7010  154.9980 C   0  0  0  0  0  2  0  0  0  0  0  0
  139.6580  138.7360  152.6860 C   0  0  0  0  0  0  0  0  0  0  0  0
  138.7000  137.9210  152.0660 C   0  0  0  0  0  3  0  0  0  0  0  0
  137.7200  137.2630  152.8100 C   0  0  0  0  0  3  0  0  0  0  0  0
  137.6740  137.4000  154.1990 C   0  0  0  0  0  0  0  0  0  0  0  0
  138.6470  138.1880  154.8260 C   0  0  0  0  0  3  0  0  0  0  0  0
  139.6250  138.8700  154.0850 C   0  0  0  0  0  0  0  0  0  0  0  0
  141.0330  138.7500  150.7460 C   0  0  0  0  0  1  0  0  0  0  0  0
  140.6690  139.3460  151.9890 O   0  0  0  0  0  0  0  0  0  0  0  0
  140.4920  139.5830  154.8740 O   0  0  0  0  0  0  0  0  0  0  0  0
  141.7140  138.9460  155.2260 C   0  0  0  0  0  1  0  0  0  0  0  0
  134.5710  134.0240  153.2140 C   0  0  0  0  0  2  0  0  0  0  0  0
  134.5640  133.9890  151.7070 C   0  0  0  0  0  0  0  0  0  0  0  0
  133.5410  133.3410  151.0120 C   0  0  0  0  0  3  0  0  0  0  0  0
  133.5650  133.2560  149.6170 C   0  0  0  0  0  3  0  0  0  0  0  0
  134.6180  133.8110  148.8780 C   0  0  0  0  0  0  0  0  0  0  0  0
  135.6320  134.5010  149.5660 C   0  0  0  0  0  0  0  0  0  0  0  0
  135.6090  134.5610  150.9690 C   0  0  0  0  0  3  0  0  0  0  0  0
  134.7280  133.6900  147.5190 O   0  0  0  0  0  0  0  0  0  0  0  0
  134.0780  134.6590  146.7090 C   0  0  0  0  0  1  0  0  0  0  0  0
  136.7370  135.1070  149.0170 O   0  0  0  0  0  0  0  0  0  0  0  0
  136.8280  136.5170  149.1740 C   0  0  0  0  0  1  0  0  0  0  0  0
  1  5  1  0  0  0  0
  2  3  2  0  0  0  0
  2  1  1  0  0  0  0
  4  1  1  0  0  0  0
  6 11  1  0  0  0  0
  7  6  2  0  0  0  0
  7  8  1  0  0  0  0
  8  9  2  0  0  0  0
  9 10  1  0  0  0  0
  9  5  1  0  0  0  0
 11 10  2  0  0  0  0
 11 14  1  0  0  0  0
 12 13  1  0  0  0  0
 13  6  1  0  0  0  0
 14 15  1  0  0  0  0
 16  2  1  0  0  0  0
 17 16  1  0  0  0  0
 18 17  1  0  0  0  0
 19 18  2  0  0  0  0
 20 21  2  0  0  0  0
 20 19  1  0  0  0  0
 21 22  1  0  0  0  0
 22 17  2  0  0  0  0
 23 20  1  0  0  0  0
 24 23  1  0  0  0  0
 25 26  1  0  0  0  0
 25 21  1  0  0  0  0
M  END
>  <MODEL>
7

>  <REMARK>
 VINA RESULT:    -6.979      2.389      8.255
 INTER + INTRA:         -10.825
 INTER:                  -9.833
 INTRA:                  -0.991
 UNBOUND:                -0.582
  Name = CHEMBL2442093
  12 active torsions:
  status: ('A' for Active; 'I' for Inactive)
    1  A    between atoms: C_1  and  O_2
    2  A    between atoms: O_2  and  C_3
    3  A    between atoms: C_6  and  C_7
    4  A    between atoms: C_7  and  N_8
    5  A    between atoms: C_9  and  C_11
    6  A    between atoms: C_11  and  C_12
    7  A    between atoms: C_15  and  O_16
    8  A    between atoms: O_16  and  C_17
    9  A    between atoms: C_18  and  O_19
   10  A    between atoms: O_19  and  C_20
   11  A    between atoms: C_23  and  O_24
   12  A    between atoms: O_24  and  C_25
                            x       y       z     vdW  Elec       q    Type
                         _______ _______ _______ _____ _____    ______ ____

>  <TORSDO>
F 8

>  <SCORE>
-6.979

>  <RMSD_LB>
2.389

>  <RMSD_UB>
8.255

$$$$
CHEMBL2442093
 OpenBabel10162523363D

 26 27  0  0  0  0  0  0  0  0999 V2000
  135.5680  134.8140  153.7900 N   0  0  0  0  0  0  0  0  0  0  0  0
  134.8790  134.9620  152.6050 C   0  0  0  0  0  0  0  0  0  0  0  0
  133.6840  135.2470  152.5610 O   0  0  0  0  0  0  0  0  0  0  0  0
  136.5230  134.5740  153.7630 H   0  0  0  0  0  0  0  0  0  0  0  0
  134.9270  135.0040  155.0720 C   0  0  0  0  0  2  0  0  0  0  0  0
  137.3540  137.3900  157.7540 C   0  0  0  0  0  0  0  0  0  0  0  0
  136.6400  136.2760  158.2190 C   0  0  0  0  0  3  0  0  0  0  0  0
  135.8560  135.5090  157.3560 C   0  0  0  0  0  3  0  0  0  0  0  0
  135.7610  135.8400  156.0030 C   0  0  0  0  0  0  0  0  0  0  0  0
  136.4470  136.9700  155.5400 C   0  0  0  0  0  3  0  0  0  0  0  0
  137.2540  137.7370  156.3960 C   0  0  0  0  0  0  0  0  0  0  0  0
  137.7330  138.1640  159.9710 C   0  0  0  0  0  1  0  0  0  0  0  0
  138.0820  138.1980  158.5890 O   0  0  0  0  0  0  0  0  0  0  0  0
  137.8380  138.8060  155.7640 O   0  0  0  0  0  0  0  0  0  0  0  0
  138.7870  138.5110  154.7470 C   0  0  0  0  0  1  0  0  0  0  0  0
  135.7020  134.6740  151.3590 C   0  0  0  0  0  2  0  0  0  0  0  0
  136.1690  135.9070  150.6290 C   0  0  0  0  0  0  0  0  0  0  0  0
  135.6440  136.2400  149.3780 C   0  0  0  0  0  3  0  0  0  0  0  0
  136.1200  137.3500  148.6740 C   0  0  0  0  0  3  0  0  0  0  0  0
  137.1400  138.1550  149.2000 C   0  0  0  0  0  0  0  0  0  0  0  0
  137.6460  137.8520  150.4760 C   0  0  0  0  0  0  0  0  0  0  0  0
  137.1750  136.7220  151.1650 C   0  0  0  0  0  3  0  0  0  0  0  0
  137.6920  139.2070  148.5200 O   0  0  0  0  0  0  0  0  0  0  0  0
  137.2430  139.4530  147.1950 C   0  0  0  0  0  1  0  0  0  0  0  0
  138.6380  138.5220  151.1510 O   0  0  0  0  0  0  0  0  0  0  0  0
  139.9690  138.0780  150.9250 C   0  0  0  0  0  1  0  0  0  0  0  0
  1  5  1  0  0  0  0
  2  1  1  0  0  0  0
  3  2  2  0  0  0  0
  4  1  1  0  0  0  0
  5  9  1  0  0  0  0
  6  7  1  0  0  0  0
  6 13  1  0  0  0  0
  8  7  2  0  0  0  0
  9  8  1  0  0  0  0
 10  9  2  0  0  0  0
 10 11  1  0  0  0  0
 11  6  2  0  0  0  0
 13 12  1  0  0  0  0
 14 11  1  0  0  0  0
 15 14  1  0  0  0  0
 16  2  1  0  0  0  0
 17 22  1  0  0  0  0
 17 16  1  0  0  0  0
 18 17  2  0  0  0  0
 19 20  2  0  0  0  0
 19 18  1  0  0  0  0
 20 21  1  0  0  0  0
 21 25  1  0  0  0  0
 21 22  2  0  0  0  0
 23 20  1  0  0  0  0
 24 23  1  0  0  0  0
 26 25  1  0  0  0  0
M  END
>  <MODEL>
8

>  <REMARK>
 VINA RESULT:    -6.812      2.867      8.352
 INTER + INTRA:         -10.579
 INTER:                  -9.620
 INTRA:                  -0.960
 UNBOUND:                -0.582
  Name = CHEMBL2442093
  12 active torsions:
  status: ('A' for Active; 'I' for Inactive)
    1  A    between atoms: C_1  and  O_2
    2  A    between atoms: O_2  and  C_3
    3  A    between atoms: C_6  and  C_7
    4  A    between atoms: C_7  and  N_8
    5  A    between atoms: C_9  and  C_11
    6  A    between atoms: C_11  and  C_12
    7  A    between atoms: C_15  and  O_16
    8  A    between atoms: O_16  and  C_17
    9  A    between atoms: C_18  and  O_19
   10  A    between atoms: O_19  and  C_20
   11  A    between atoms: C_23  and  O_24
   12  A    between atoms: O_24  and  C_25
                            x       y       z     vdW  Elec       q    Type
                         _______ _______ _______ _____ _____    ______ ____

>  <TORSDO>
F 8

>  <SCORE>
-6.812

>  <RMSD_LB>
2.867

>  <RMSD_UB>
8.352

$$$$
CHEMBL2442093
 OpenBabel10162523363D

 26 27  0  0  0  0  0  0  0  0999 V2000
  138.6720  137.9770  155.1670 N   0  0  0  0  0  0  0  0  0  0  0  0
  139.4820  138.8420  154.4610 C   0  0  0  0  0  0  0  0  0  0  0  0
  139.1750  140.0110  154.2400 O   0  0  0  0  0  0  0  0  0  0  0  0
  138.9660  137.0470  155.3040 H   0  0  0  0  0  0  0  0  0  0  0  0
  137.4020  138.4010  155.7120 C   0  0  0  0  0  2  0  0  0  0  0  0
  135.9480  135.6300  158.7120 C   0  0  0  0  0  0  0  0  0  0  0  0
  135.8450  135.3390  157.3440 C   0  0  0  0  0  3  0  0  0  0  0  0
  136.3100  136.2320  156.3780 C   0  0  0  0  0  3  0  0  0  0  0  0
  136.8880  137.4460  156.7550 C   0  0  0  0  0  0  0  0  0  0  0  0
  136.9650  137.7550  158.1190 C   0  0  0  0  0  3  0  0  0  0  0  0
  136.5180  136.8550  159.0990 C   0  0  0  0  0  0  0  0  0  0  0  0
  134.0660  134.9600  160.0020 C   0  0  0  0  0  1  0  0  0  0  0  0
  135.4460  134.8010  159.6810 O   0  0  0  0  0  0  0  0  0  0  0  0
  136.6700  137.3360  160.3750 O   0  0  0  0  0  0  0  0  0  0  0  0
  136.5960  138.7470  160.5430 C   0  0  0  0  0  1  0  0  0  0  0  0
  140.7550  138.2090  153.9190 C   0  0  0  0  0  2  0  0  0  0  0  0
  140.6450  137.7270  152.4950 C   0  0  0  0  0  0  0  0  0  0  0  0
  141.7870  137.3930  151.7630 C   0  0  0  0  0  3  0  0  0  0  0  0
  141.6910  137.0050  150.4240 C   0  0  0  0  0  3  0  0  0  0  0  0
  140.4500  136.9450  149.7770 C   0  0  0  0  0  0  0  0  0  0  0  0
  139.2910  137.2410  150.5160 C   0  0  0  0  0  0  0  0  0  0  0  0
  139.4010  137.6510  151.8550 C   0  0  0  0  0  3  0  0  0  0  0  0
  140.3080  136.6450  148.4490 O   0  0  0  0  0  0  0  0  0  0  0  0
  140.1720  135.2780  148.0860 C   0  0  0  0  0  1  0  0  0  0  0  0
  137.9950  137.2360  150.0570 O   0  0  0  0  0  0  0  0  0  0  0  0
  137.1270  136.2630  150.6220 C   0  0  0  0  0  1  0  0  0  0  0  0
  1  4  1  0  0  0  0
  1  5  1  0  0  0  0
  2  1  1  0  0  0  0
  3  2  2  0  0  0  0
  5  9  1  0  0  0  0
  6 11  1  0  0  0  0
  6 13  1  0  0  0  0
  7  6  2  0  0  0  0
  8  9  2  0  0  0  0
  8  7  1  0  0  0  0
  9 10  1  0  0  0  0
 10 11  2  0  0  0  0
 11 14  1  0  0  0  0
 13 12  1  0  0  0  0
 14 15  1  0  0  0  0
 16  2  1  0  0  0  0
 17 16  1  0  0  0  0
 18 17  2  0  0  0  0
 19 18  1  0  0  0  0
 20 19  2  0  0  0  0
 20 21  1  0  0  0  0
 21 22  2  0  0  0  0
 22 17  1  0  0  0  0
 23 20  1  0  0  0  0
 24 23  1  0  0  0  0
 25 21  1  0  0  0  0
 25 26  1  0  0  0  0
M  END
>  <MODEL>
9

>  <REMARK>
 VINA RESULT:    -6.734      3.964      9.356
 INTER + INTRA:         -10.465
 INTER:                  -9.883
 INTRA:                  -0.582
 UNBOUND:                -0.582
  Name = CHEMBL2442093
  12 active torsions:
  status: ('A' for Active; 'I' for Inactive)
    1  A    between atoms: C_1  and  O_2
    2  A    between atoms: O_2  and  C_3
    3  A    between atoms: C_6  and  C_7
    4  A    between atoms: C_7  and  N_8
    5  A    between atoms: C_9  and  C_11
    6  A    between atoms: C_11  and  C_12
    7  A    between atoms: C_15  and  O_16
    8  A    between atoms: O_16  and  C_17
    9  A    between atoms: C_18  and  O_19
   10  A    between atoms: O_19  and  C_20
   11  A    between atoms: C_23  and  O_24
   12  A    between atoms: O_24  and  C_25
                            x       y       z     vdW  Elec       q    Type
                         _______ _______ _______ _____ _____    ______ ____

>  <TORSDO>
F 8

>  <SCORE>
-6.734

>  <RMSD_LB>
3.964

>  <RMSD_UB>
9.356

$$$$
