CHEMBL4560140
 OpenBabel10172500323D

 27 28  0  0  0  0  0  0  0  0999 V2000
  135.3070  135.4270  154.5000 N   0  0  0  0  0  0  0  0  0  0  0  0
  134.5580  134.2930  154.2910 C   0  0  0  0  0  0  0  0  0  0  0  0
  134.3190  133.4610  155.1580 O   0  0  0  0  0  0  0  0  0  0  0  0
  135.4270  136.0610  153.7570 H   0  0  0  0  0  0  0  0  0  0  0  0
  134.0750  134.1530  152.8930 C   0  0  0  0  0  3  0  0  0  0  0  0
  134.9630  134.0990  151.8870 C   0  0  0  0  0  3  0  0  0  0  0  0
  134.5660  133.9800  150.4740 C   0  0  0  0  0  0  0  0  0  0  0  0
  133.2820  133.5010  150.1920 C   0  0  0  0  0  3  0  0  0  0  0  0
  132.8450  133.3950  148.8770 C   0  0  0  0  0  3  0  0  0  0  0  0
  133.6880  133.7700  147.8290 C   0  0  0  0  0  3  0  0  0  0  0  0
  134.9830  134.2560  148.0810 C   0  0  0  0  0  0  0  0  0  0  0  0
  135.4320  134.3630  149.4170 C   0  0  0  0  0  0  0  0  0  0  0  0
  135.8320  134.6380  147.0750 O   0  0  0  0  0  0  0  0  0  0  0  0
  136.5720  133.6450  146.3790 C   0  0  0  0  0  1  0  0  0  0  0  0
  136.6570  134.8130  149.8480 O   0  0  0  0  0  0  0  0  0  0  0  0
  136.9090  136.2060  149.9260 C   0  0  0  0  0  1  0  0  0  0  0  0
  135.9230  135.7180  155.7790 C   0  0  0  0  0  2  0  0  0  0  0  0
  138.5850  138.0750  154.3650 C   0  0  0  0  0  0  0  0  0  0  0  0
  137.4470  137.2710  154.4830 C   0  0  0  0  0  3  0  0  0  0  0  0
  137.1870  136.5370  155.6550 C   0  0  0  0  0  0  0  0  0  0  0  0
  138.0890  136.6330  156.7250 C   0  0  0  0  0  3  0  0  0  0  0  0
  139.2290  137.4350  156.6220 C   0  0  0  0  0  3  0  0  0  0  0  0
  139.4720  138.1450  155.4470 C   0  0  0  0  0  0  0  0  0  0  0  0
  139.3230  138.1210  152.1010 C   0  0  0  0  0  1  0  0  0  0  0  0
  138.9070  138.8230  153.2640 O   0  0  0  0  0  0  0  0  0  0  0  0
  140.5890  138.9320  155.3470 O   0  0  0  0  0  0  0  0  0  0  0  0
  140.8940  139.4110  156.0930 H   0  0  0  0  0  0  0  0  0  0  0  0
  1 17  1  0  0  0  0
  2  1  1  0  0  0  0
  2  3  2  0  0  0  0
  4  1  1  0  0  0  0
  5  2  1  0  0  0  0
  6  5  2  0  0  0  0
  7  6  1  0  0  0  0
  8  7  1  0  0  0  0
  9  8  2  0  0  0  0
 10 11  2  0  0  0  0
 10  9  1  0  0  0  0
 11 12  1  0  0  0  0
 12 15  1  0  0  0  0
 12  7  2  0  0  0  0
 13 11  1  0  0  0  0
 14 13  1  0  0  0  0
 15 16  1  0  0  0  0
 18 19  2  0  0  0  0
 18 23  1  0  0  0  0
 19 20  1  0  0  0  0
 20 17  1  0  0  0  0
 20 21  2  0  0  0  0
 22 21  1  0  0  0  0
 23 22  2  0  0  0  0
 24 25  1  0  0  0  0
 25 18  1  0  0  0  0
 26 23  1  0  0  0  0
 26 27  1  0  0  0  0
M  END
>  <MODEL>
1

>  <REMARK>
 VINA RESULT:    -7.226      0.000      0.000
 INTER + INTRA:         -11.109
 INTER:                 -10.348
 INTRA:                  -0.761
 UNBOUND:                -0.715
  Name = CHEMBL4560140
  11 active torsions:
  status: ('A' for Active; 'I' for Inactive)
    1  A    between atoms: C_1  and  O_2
    2  A    between atoms: O_2  and  C_3
    3  A    between atoms: C_5  and  C_6
    4  A    between atoms: C_6  and  N_7
    5  A    between atoms: C_8  and  C_10
    6  A    between atoms: C_11  and  C_12
    7  A    between atoms: C_16  and  O_17
    8  A    between atoms: O_17  and  C_18
    9  A    between atoms: C_19  and  O_20
   10  A    between atoms: O_20  and  C_21
   11  A    between atoms: C_24  and  O_25
                            x       y       z     vdW  Elec       q    Type
                         _______ _______ _______ _____ _____    ______ ____

>  <TORSDO>
F 8

>  <SCORE>
-7.226

>  <RMSD_LB>
0.000

>  <RMSD_UB>
0.000

$$$$
CHEMBL4560140
 OpenBabel10172500323D

 27 28  0  0  0  0  0  0  0  0999 V2000
  133.9460  135.5430  152.1640 N   0  0  0  0  0  0  0  0  0  0  0  0
  134.4310  134.8430  153.2430 C   0  0  0  0  0  0  0  0  0  0  0  0
  133.9760  133.7730  153.6260 O   0  0  0  0  0  0  0  0  0  0  0  0
  134.3890  136.3830  151.9050 H   0  0  0  0  0  0  0  0  0  0  0  0
  135.5630  135.5210  153.9270 C   0  0  0  0  0  3  0  0  0  0  0  0
  135.5030  135.7390  155.2510 C   0  0  0  0  0  3  0  0  0  0  0  0
  136.5710  136.4200  156.0010 C   0  0  0  0  0  0  0  0  0  0  0  0
  137.6210  136.9900  155.2720 C   0  0  0  0  0  3  0  0  0  0  0  0
  138.6420  137.6700  155.9260 C   0  0  0  0  0  3  0  0  0  0  0  0
  138.6220  137.7880  157.3180 C   0  0  0  0  0  3  0  0  0  0  0  0
  137.5800  137.2260  158.0760 C   0  0  0  0  0  0  0  0  0  0  0  0
  136.5420  136.5320  157.4150 C   0  0  0  0  0  0  0  0  0  0  0  0
  137.5290  137.3300  159.4430 O   0  0  0  0  0  0  0  0  0  0  0  0
  136.7590  138.3690  160.0300 C   0  0  0  0  0  1  0  0  0  0  0  0
  135.4520  135.9230  157.9900 O   0  0  0  0  0  0  0  0  0  0  0  0
  135.6300  134.7640  158.7870 C   0  0  0  0  0  1  0  0  0  0  0  0
  132.8040  135.0840  151.3990 C   0  0  0  0  0  2  0  0  0  0  0  0
  133.5970  134.7150  147.6740 C   0  0  0  0  0  0  0  0  0  0  0  0
  133.1970  135.2510  148.9030 C   0  0  0  0  0  3  0  0  0  0  0  0
  133.1870  134.4690  150.0730 C   0  0  0  0  0  0  0  0  0  0  0  0
  133.5990  133.1310  149.9940 C   0  0  0  0  0  3  0  0  0  0  0  0
  134.0030  132.5840  148.7730 C   0  0  0  0  0  3  0  0  0  0  0  0
  133.9960  133.3740  147.6240 C   0  0  0  0  0  0  0  0  0  0  0  0
  134.6620  136.3860  146.3520 C   0  0  0  0  0  1  0  0  0  0  0  0
  133.6410  135.4090  146.4930 O   0  0  0  0  0  0  0  0  0  0  0  0
  134.3930  132.8370  146.4280 O   0  0  0  0  0  0  0  0  0  0  0  0
  134.7640  131.9770  146.4000 H   0  0  0  0  0  0  0  0  0  0  0  0
  1  2  1  0  0  0  0
  2  3  2  0  0  0  0
  2  5  1  0  0  0  0
  4  1  1  0  0  0  0
  5  6  2  0  0  0  0
  6  7  1  0  0  0  0
  7 12  1  0  0  0  0
  8  9  1  0  0  0  0
  8  7  2  0  0  0  0
  9 10  2  0  0  0  0
 10 11  1  0  0  0  0
 11 13  1  0  0  0  0
 12 15  1  0  0  0  0
 12 11  2  0  0  0  0
 13 14  1  0  0  0  0
 15 16  1  0  0  0  0
 17  1  1  0  0  0  0
 18 19  1  0  0  0  0
 19 20  2  0  0  0  0
 20 17  1  0  0  0  0
 21 20  1  0  0  0  0
 22 21  2  0  0  0  0
 23 18  2  0  0  0  0
 23 22  1  0  0  0  0
 24 25  1  0  0  0  0
 25 18  1  0  0  0  0
 26 23  1  0  0  0  0
 27 26  1  0  0  0  0
M  END
>  <MODEL>
2

>  <REMARK>
 VINA RESULT:    -7.113      2.609      8.685
 INTER + INTRA:         -10.946
 INTER:                 -10.340
 INTRA:                  -0.606
 UNBOUND:                -0.715
  Name = CHEMBL4560140
  11 active torsions:
  status: ('A' for Active; 'I' for Inactive)
    1  A    between atoms: C_1  and  O_2
    2  A    between atoms: O_2  and  C_3
    3  A    between atoms: C_5  and  C_6
    4  A    between atoms: C_6  and  N_7
    5  A    between atoms: C_8  and  C_10
    6  A    between atoms: C_11  and  C_12
    7  A    between atoms: C_16  and  O_17
    8  A    between atoms: O_17  and  C_18
    9  A    between atoms: C_19  and  O_20
   10  A    between atoms: O_20  and  C_21
   11  A    between atoms: C_24  and  O_25
                            x       y       z     vdW  Elec       q    Type
                         _______ _______ _______ _____ _____    ______ ____

>  <TORSDO>
F 8

>  <SCORE>
-7.113

>  <RMSD_LB>
2.609

>  <RMSD_UB>
8.685

$$$$
CHEMBL4560140
 OpenBabel10172500323D

 27 28  0  0  0  0  0  0  0  0999 V2000
  145.0210  136.8650  152.0400 N   0  0  0  0  0  0  0  0  0  0  0  0
  144.1830  137.0230  150.9620 C   0  0  0  0  0  0  0  0  0  0  0  0
  144.5690  137.1150  149.8030 O   0  0  0  0  0  0  0  0  0  0  0  0
  144.6280  136.7690  152.9380 H   0  0  0  0  0  0  0  0  0  0  0  0
  142.7470  137.0930  151.3350 C   0  0  0  0  0  3  0  0  0  0  0  0
  142.3810  137.7620  152.4410 C   0  0  0  0  0  3  0  0  0  0  0  0
  140.9830  137.8630  152.8910 C   0  0  0  0  0  0  0  0  0  0  0  0
  139.9740  137.6850  151.9370 C   0  0  0  0  0  3  0  0  0  0  0  0
  138.6360  137.7410  152.3120 C   0  0  0  0  0  3  0  0  0  0  0  0
  138.2940  137.9760  153.6450 C   0  0  0  0  0  3  0  0  0  0  0  0
  139.2860  138.1580  154.6250 C   0  0  0  0  0  0  0  0  0  0  0  0
  140.6470  138.1040  154.2480 C   0  0  0  0  0  0  0  0  0  0  0  0
  138.9820  138.3840  155.9430 O   0  0  0  0  0  0  0  0  0  0  0  0
  138.6340  137.2840  156.7720 C   0  0  0  0  0  1  0  0  0  0  0  0
  141.7420  138.2590  155.0640 O   0  0  0  0  0  0  0  0  0  0  0  0
  142.2030  139.5610  155.3860 C   0  0  0  0  0  1  0  0  0  0  0  0
  146.4630  136.8370  151.8970 C   0  0  0  0  0  2  0  0  0  0  0  0
  148.1930  140.1250  152.8140 C   0  0  0  0  0  0  0  0  0  0  0  0
  147.5900  139.0970  152.0800 C   0  0  0  0  0  3  0  0  0  0  0  0
  147.1610  137.9100  152.7020 C   0  0  0  0  0  0  0  0  0  0  0  0
  147.3340  137.7710  154.0860 C   0  0  0  0  0  3  0  0  0  0  0  0
  147.9320  138.7910  154.8320 C   0  0  0  0  0  3  0  0  0  0  0  0
  148.3600  139.9550  154.1950 C   0  0  0  0  0  0  0  0  0  0  0  0
  147.8570  141.8870  151.2460 C   0  0  0  0  0  1  0  0  0  0  0  0
  148.6320  141.3110  152.2880 O   0  0  0  0  0  0  0  0  0  0  0  0
  148.9450  140.9550  154.9260 O   0  0  0  0  0  0  0  0  0  0  0  0
  148.4250  141.6640  155.2510 H   0  0  0  0  0  0  0  0  0  0  0  0
  1  4  1  0  0  0  0
  2  5  1  0  0  0  0
  2  1  1  0  0  0  0
  3  2  2  0  0  0  0
  5  6  2  0  0  0  0
  6  7  1  0  0  0  0
  7 12  1  0  0  0  0
  8  9  1  0  0  0  0
  8  7  2  0  0  0  0
  9 10  2  0  0  0  0
 10 11  1  0  0  0  0
 11 13  1  0  0  0  0
 12 11  2  0  0  0  0
 12 15  1  0  0  0  0
 13 14  1  0  0  0  0
 15 16  1  0  0  0  0
 17  1  1  0  0  0  0
 17 20  1  0  0  0  0
 18 23  1  0  0  0  0
 19 20  1  0  0  0  0
 19 18  2  0  0  0  0
 20 21  2  0  0  0  0
 21 22  1  0  0  0  0
 23 22  2  0  0  0  0
 23 26  1  0  0  0  0
 24 25  1  0  0  0  0
 25 18  1  0  0  0  0
 26 27  1  0  0  0  0
M  END
>  <MODEL>
3

>  <REMARK>
 VINA RESULT:    -7.048      6.167      9.495
 INTER + INTRA:         -10.853
 INTER:                 -10.136
 INTRA:                  -0.718
 UNBOUND:                -0.715
  Name = CHEMBL4560140
  11 active torsions:
  status: ('A' for Active; 'I' for Inactive)
    1  A    between atoms: C_1  and  O_2
    2  A    between atoms: O_2  and  C_3
    3  A    between atoms: C_5  and  C_6
    4  A    between atoms: C_6  and  N_7
    5  A    between atoms: C_8  and  C_10
    6  A    between atoms: C_11  and  C_12
    7  A    between atoms: C_16  and  O_17
    8  A    between atoms: O_17  and  C_18
    9  A    between atoms: C_19  and  O_20
   10  A    between atoms: O_20  and  C_21
   11  A    between atoms: C_24  and  O_25
                            x       y       z     vdW  Elec       q    Type
                         _______ _______ _______ _____ _____    ______ ____

>  <TORSDO>
F 8

>  <SCORE>
-7.048

>  <RMSD_LB>
6.167

>  <RMSD_UB>
9.495

$$$$
CHEMBL4560140
 OpenBabel10172500323D

 27 28  0  0  0  0  0  0  0  0999 V2000
  134.5480  135.2190  155.3170 N   0  0  0  0  0  0  0  0  0  0  0  0
  134.3700  134.4630  154.1820 C   0  0  0  0  0  0  0  0  0  0  0  0
  134.3070  133.2400  154.1780 O   0  0  0  0  0  0  0  0  0  0  0  0
  134.5570  136.2000  155.2380 H   0  0  0  0  0  0  0  0  0  0  0  0
  134.2800  135.2740  152.9400 C   0  0  0  0  0  3  0  0  0  0  0  0
  133.7750  134.7230  151.8240 C   0  0  0  0  0  3  0  0  0  0  0  0
  133.6680  135.4510  150.5490 C   0  0  0  0  0  0  0  0  0  0  0  0
  132.5890  136.3270  150.3840 C   0  0  0  0  0  3  0  0  0  0  0  0
  132.4540  137.0610  149.2110 C   0  0  0  0  0  3  0  0  0  0  0  0
  133.4000  136.9280  148.1920 C   0  0  0  0  0  3  0  0  0  0  0  0
  134.4940  136.0570  148.3300 C   0  0  0  0  0  0  0  0  0  0  0  0
  134.6330  135.3060  149.5200 C   0  0  0  0  0  0  0  0  0  0  0  0
  135.4420  135.9090  147.3500 O   0  0  0  0  0  0  0  0  0  0  0  0
  135.2420  134.9360  146.3350 C   0  0  0  0  0  1  0  0  0  0  0  0
  135.6320  134.4130  149.8260 O   0  0  0  0  0  0  0  0  0  0  0  0
  136.9360  134.8860  150.1200 C   0  0  0  0  0  1  0  0  0  0  0  0
  134.7210  134.6170  156.6240 C   0  0  0  0  0  2  0  0  0  0  0  0
  137.2660  137.1820  157.8810 C   0  0  0  0  0  0  0  0  0  0  0  0
  136.5100  136.3600  157.0380 C   0  0  0  0  0  3  0  0  0  0  0  0
  135.5640  135.4550  157.5560 C   0  0  0  0  0  0  0  0  0  0  0  0
  135.3770  135.3950  158.9450 C   0  0  0  0  0  3  0  0  0  0  0  0
  136.1240  136.2130  159.7970 C   0  0  0  0  0  3  0  0  0  0  0  0
  137.0630  137.0950  159.2640 C   0  0  0  0  0  0  0  0  0  0  0  0
  139.2200  137.6180  156.5900 C   0  0  0  0  0  1  0  0  0  0  0  0
  138.2000  138.0910  157.4580 O   0  0  0  0  0  0  0  0  0  0  0  0
  137.7940  137.8960  160.1000 O   0  0  0  0  0  0  0  0  0  0  0  0
  137.4570  138.1260  160.9440 H   0  0  0  0  0  0  0  0  0  0  0  0
  1 17  1  0  0  0  0
  2  1  1  0  0  0  0
  3  2  2  0  0  0  0
  4  1  1  0  0  0  0
  5  2  1  0  0  0  0
  6  5  2  0  0  0  0
  7  6  1  0  0  0  0
  8  7  1  0  0  0  0
  9  8  2  0  0  0  0
 10 11  2  0  0  0  0
 10  9  1  0  0  0  0
 11 12  1  0  0  0  0
 12 15  1  0  0  0  0
 12  7  2  0  0  0  0
 13 11  1  0  0  0  0
 14 13  1  0  0  0  0
 15 16  1  0  0  0  0
 17 20  1  0  0  0  0
 18 23  1  0  0  0  0
 19 20  1  0  0  0  0
 19 18  2  0  0  0  0
 20 21  2  0  0  0  0
 21 22  1  0  0  0  0
 23 22  2  0  0  0  0
 23 26  1  0  0  0  0
 24 25  1  0  0  0  0
 25 18  1  0  0  0  0
 26 27  1  0  0  0  0
M  END
>  <MODEL>
4

>  <REMARK>
 VINA RESULT:    -6.985      2.356      2.934
 INTER + INTRA:         -10.763
 INTER:                 -10.158
 INTRA:                  -0.605
 UNBOUND:                -0.715
  Name = CHEMBL4560140
  11 active torsions:
  status: ('A' for Active; 'I' for Inactive)
    1  A    between atoms: C_1  and  O_2
    2  A    between atoms: O_2  and  C_3
    3  A    between atoms: C_5  and  C_6
    4  A    between atoms: C_6  and  N_7
    5  A    between atoms: C_8  and  C_10
    6  A    between atoms: C_11  and  C_12
    7  A    between atoms: C_16  and  O_17
    8  A    between atoms: O_17  and  C_18
    9  A    between atoms: C_19  and  O_20
   10  A    between atoms: O_20  and  C_21
   11  A    between atoms: C_24  and  O_25
                            x       y       z     vdW  Elec       q    Type
                         _______ _______ _______ _____ _____    ______ ____

>  <TORSDO>
F 8

>  <SCORE>
-6.985

>  <RMSD_LB>
2.356

>  <RMSD_UB>
2.934

$$$$
CHEMBL4560140
 OpenBabel10172500323D

 27 28  0  0  0  0  0  0  0  0999 V2000
  133.9920  135.9370  151.7210 N   0  0  0  0  0  0  0  0  0  0  0  0
  134.5120  134.8240  152.3370 C   0  0  0  0  0  0  0  0  0  0  0  0
  134.0820  133.6890  152.1770 O   0  0  0  0  0  0  0  0  0  0  0  0
  134.4160  136.8110  151.8810 H   0  0  0  0  0  0  0  0  0  0  0  0
  135.6490  135.1290  153.2450 C   0  0  0  0  0  3  0  0  0  0  0  0
  135.4940  136.0430  154.2170 C   0  0  0  0  0  3  0  0  0  0  0  0
  136.5730  136.4160  155.1460 C   0  0  0  0  0  0  0  0  0  0  0  0
  136.6070  135.7890  156.3970 C   0  0  0  0  0  3  0  0  0  0  0  0
  137.6200  136.0810  157.3020 C   0  0  0  0  0  3  0  0  0  0  0  0
  138.6130  137.0040  156.9640 C   0  0  0  0  0  3  0  0  0  0  0  0
  138.6060  137.6490  155.7150 C   0  0  0  0  0  0  0  0  0  0  0  0
  137.5760  137.3560  154.7930 C   0  0  0  0  0  0  0  0  0  0  0  0
  139.5690  138.5550  155.3520 O   0  0  0  0  0  0  0  0  0  0  0  0
  140.9350  138.1660  155.3910 C   0  0  0  0  0  1  0  0  0  0  0  0
  137.4110  137.8860  153.5350 O   0  0  0  0  0  0  0  0  0  0  0  0
  138.3620  137.6070  152.5220 C   0  0  0  0  0  1  0  0  0  0  0  0
  132.8400  135.8640  150.8440 C   0  0  0  0  0  2  0  0  0  0  0  0
  134.3550  135.2810  147.3790 C   0  0  0  0  0  0  0  0  0  0  0  0
  134.0560  135.1530  148.7400 C   0  0  0  0  0  3  0  0  0  0  0  0
  133.1910  136.0550  149.3860 C   0  0  0  0  0  0  0  0  0  0  0  0
  132.6140  137.0910  148.6380 C   0  0  0  0  0  3  0  0  0  0  0  0
  132.9020  137.2290  147.2780 C   0  0  0  0  0  3  0  0  0  0  0  0
  133.7700  136.3300  146.6590 C   0  0  0  0  0  0  0  0  0  0  0  0
  135.0450  133.0490  146.9100 C   0  0  0  0  0  1  0  0  0  0  0  0
  135.1800  134.4440  146.6750 O   0  0  0  0  0  0  0  0  0  0  0  0
  134.0520  136.4650  145.3250 O   0  0  0  0  0  0  0  0  0  0  0  0
  133.6740  135.8740  144.7040 H   0  0  0  0  0  0  0  0  0  0  0  0
  1  4  1  0  0  0  0
  1  2  1  0  0  0  0
  2  5  1  0  0  0  0
  3  2  2  0  0  0  0
  5  6  2  0  0  0  0
  6  7  1  0  0  0  0
  7  8  1  0  0  0  0
  8  9  2  0  0  0  0
 10  9  1  0  0  0  0
 11 10  2  0  0  0  0
 12  7  2  0  0  0  0
 12 11  1  0  0  0  0
 13 14  1  0  0  0  0
 13 11  1  0  0  0  0
 15 12  1  0  0  0  0
 16 15  1  0  0  0  0
 17  1  1  0  0  0  0
 18 19  1  0  0  0  0
 19 20  2  0  0  0  0
 20 17  1  0  0  0  0
 21 20  1  0  0  0  0
 22 21  2  0  0  0  0
 23 22  1  0  0  0  0
 23 18  2  0  0  0  0
 25 24  1  0  0  0  0
 25 18  1  0  0  0  0
 26 23  1  0  0  0  0
 27 26  1  0  0  0  0
M  END
>  <MODEL>
5

>  <REMARK>
 VINA RESULT:    -6.946      2.012      7.913
 INTER + INTRA:         -10.706
 INTER:                 -10.105
 INTRA:                  -0.601
 UNBOUND:                -0.715
  Name = CHEMBL4560140
  11 active torsions:
  status: ('A' for Active; 'I' for Inactive)
    1  A    between atoms: C_1  and  O_2
    2  A    between atoms: O_2  and  C_3
    3  A    between atoms: C_5  and  C_6
    4  A    between atoms: C_6  and  N_7
    5  A    between atoms: C_8  and  C_10
    6  A    between atoms: C_11  and  C_12
    7  A    between atoms: C_16  and  O_17
    8  A    between atoms: O_17  and  C_18
    9  A    between atoms: C_19  and  O_20
   10  A    between atoms: O_20  and  C_21
   11  A    between atoms: C_24  and  O_25
                            x       y       z     vdW  Elec       q    Type
                         _______ _______ _______ _____ _____    ______ ____

>  <TORSDO>
F 8

>  <SCORE>
-6.946

>  <RMSD_LB>
2.012

>  <RMSD_UB>
7.913

$$$$
CHEMBL4560140
 OpenBabel10172500323D

 27 28  0  0  0  0  0  0  0  0999 V2000
  134.9430  134.6480  154.4070 N   0  0  0  0  0  0  0  0  0  0  0  0
  134.4790  135.4020  153.3550 C   0  0  0  0  0  0  0  0  0  0  0  0
  133.8660  136.4540  153.4860 O   0  0  0  0  0  0  0  0  0  0  0  0
  135.4550  133.8290  154.2150 H   0  0  0  0  0  0  0  0  0  0  0  0
  134.7770  134.8080  152.0260 C   0  0  0  0  0  3  0  0  0  0  0  0
  133.8080  134.7420  151.0980 C   0  0  0  0  0  3  0  0  0  0  0  0
  134.0140  134.1520  149.7650 C   0  0  0  0  0  0  0  0  0  0  0  0
  134.1370  132.7610  149.6760 C   0  0  0  0  0  3  0  0  0  0  0  0
  134.3040  132.1490  148.4390 C   0  0  0  0  0  3  0  0  0  0  0  0
  134.3480  132.9230  147.2770 C   0  0  0  0  0  3  0  0  0  0  0  0
  134.2260  134.3220  147.3360 C   0  0  0  0  0  0  0  0  0  0  0  0
  134.0580  134.9490  148.5910 C   0  0  0  0  0  0  0  0  0  0  0  0
  134.2590  135.1080  146.2130 O   0  0  0  0  0  0  0  0  0  0  0  0
  134.9240  134.6300  145.0520 C   0  0  0  0  0  1  0  0  0  0  0  0
  133.9240  136.2940  148.8370 O   0  0  0  0  0  0  0  0  0  0  0  0
  132.7290  136.9620  148.4670 C   0  0  0  0  0  1  0  0  0  0  0  0
  134.7030  135.0200  155.7870 C   0  0  0  0  0  2  0  0  0  0  0  0
  137.3030  137.7900  156.2480 C   0  0  0  0  0  0  0  0  0  0  0  0
  136.3060  136.9780  155.6950 C   0  0  0  0  0  3  0  0  0  0  0  0
  135.8180  135.8500  156.3800 C   0  0  0  0  0  0  0  0  0  0  0  0
  136.3420  135.5500  157.6460 C   0  0  0  0  0  3  0  0  0  0  0  0
  137.3360  136.3540  158.2110 C   0  0  0  0  0  3  0  0  0  0  0  0
  137.8120  137.4610  157.5110 C   0  0  0  0  0  0  0  0  0  0  0  0
  138.5410  138.7190  154.4370 C   0  0  0  0  0  1  0  0  0  0  0  0
  137.8270  138.9060  155.6510 O   0  0  0  0  0  0  0  0  0  0  0  0
  138.7860  138.2490  158.0660 O   0  0  0  0  0  0  0  0  0  0  0  0
  139.6700  137.9410  158.1090 H   0  0  0  0  0  0  0  0  0  0  0  0
  1 17  1  0  0  0  0
  2  3  2  0  0  0  0
  2  1  1  0  0  0  0
  4  1  1  0  0  0  0
  5  2  1  0  0  0  0
  6  5  2  0  0  0  0
  7  6  1  0  0  0  0
  8  7  1  0  0  0  0
  9  8  2  0  0  0  0
 10 11  2  0  0  0  0
 10  9  1  0  0  0  0
 11 12  1  0  0  0  0
 12 15  1  0  0  0  0
 12  7  2  0  0  0  0
 13 11  1  0  0  0  0
 14 13  1  0  0  0  0
 16 15  1  0  0  0  0
 17 20  1  0  0  0  0
 18 23  1  0  0  0  0
 19 18  2  0  0  0  0
 19 20  1  0  0  0  0
 20 21  2  0  0  0  0
 21 22  1  0  0  0  0
 23 26  1  0  0  0  0
 23 22  2  0  0  0  0
 24 25  1  0  0  0  0
 25 18  1  0  0  0  0
 26 27  1  0  0  0  0
M  END
>  <MODEL>
6

>  <REMARK>
 VINA RESULT:    -6.903      1.881      2.259
 INTER + INTRA:         -10.644
 INTER:                 -10.277
 INTRA:                  -0.367
 UNBOUND:                -0.715
  Name = CHEMBL4560140
  11 active torsions:
  status: ('A' for Active; 'I' for Inactive)
    1  A    between atoms: C_1  and  O_2
    2  A    between atoms: O_2  and  C_3
    3  A    between atoms: C_5  and  C_6
    4  A    between atoms: C_6  and  N_7
    5  A    between atoms: C_8  and  C_10
    6  A    between atoms: C_11  and  C_12
    7  A    between atoms: C_16  and  O_17
    8  A    between atoms: O_17  and  C_18
    9  A    between atoms: C_19  and  O_20
   10  A    between atoms: O_20  and  C_21
   11  A    between atoms: C_24  and  O_25
                            x       y       z     vdW  Elec       q    Type
                         _______ _______ _______ _____ _____    ______ ____

>  <TORSDO>
F 8

>  <SCORE>
-6.903

>  <RMSD_LB>
1.881

>  <RMSD_UB>
2.259

$$$$
CHEMBL4560140
 OpenBabel10172500323D

 27 28  0  0  0  0  0  0  0  0999 V2000
  133.7270  135.7740  151.3900 N   0  0  0  0  0  0  0  0  0  0  0  0
  134.2810  134.6650  151.9860 C   0  0  0  0  0  0  0  0  0  0  0  0
  133.9520  133.5140  151.7290 O   0  0  0  0  0  0  0  0  0  0  0  0
  134.0700  136.6640  151.6310 H   0  0  0  0  0  0  0  0  0  0  0  0
  135.3170  134.9950  152.9990 C   0  0  0  0  0  3  0  0  0  0  0  0
  134.9420  135.3700  154.2330 C   0  0  0  0  0  3  0  0  0  0  0  0
  135.9030  135.7310  155.2880 C   0  0  0  0  0  0  0  0  0  0  0  0
  136.9290  136.6250  154.9610 C   0  0  0  0  0  3  0  0  0  0  0  0
  137.8470  137.0230  155.9250 C   0  0  0  0  0  3  0  0  0  0  0  0
  137.7480  136.5310  157.2290 C   0  0  0  0  0  3  0  0  0  0  0  0
  136.7280  135.6330  157.5870 C   0  0  0  0  0  0  0  0  0  0  0  0
  135.7930  135.2240  156.6080 C   0  0  0  0  0  0  0  0  0  0  0  0
  136.6000  135.1370  158.8590 O   0  0  0  0  0  0  0  0  0  0  0  0
  136.2680  136.0240  159.9180 C   0  0  0  0  0  1  0  0  0  0  0  0
  134.7390  134.3590  156.7770 O   0  0  0  0  0  0  0  0  0  0  0  0
  133.6330  134.7420  157.5790 C   0  0  0  0  0  1  0  0  0  0  0  0
  132.6560  135.6720  150.4190 C   0  0  0  0  0  2  0  0  0  0  0  0
  134.4760  135.4410  147.0620 C   0  0  0  0  0  0  0  0  0  0  0  0
  134.0850  135.1990  148.3830 C   0  0  0  0  0  3  0  0  0  0  0  0
  133.1000  135.9860  149.0090 C   0  0  0  0  0  0  0  0  0  0  0  0
  132.4990  137.0220  148.2800 C   0  0  0  0  0  3  0  0  0  0  0  0
  132.8780  137.2720  146.9590 C   0  0  0  0  0  3  0  0  0  0  0  0
  133.8630  136.4870  146.3600 C   0  0  0  0  0  0  0  0  0  0  0  0
  135.3180  133.3030  146.4310 C   0  0  0  0  0  1  0  0  0  0  0  0
  135.4190  134.7200  146.3790 O   0  0  0  0  0  0  0  0  0  0  0  0
  134.2340  136.7320  145.0650 O   0  0  0  0  0  0  0  0  0  0  0  0
  133.9550  136.1560  144.3800 H   0  0  0  0  0  0  0  0  0  0  0  0
  1  4  1  0  0  0  0
  1  2  1  0  0  0  0
  2  5  1  0  0  0  0
  3  2  2  0  0  0  0
  5  6  2  0  0  0  0
  6  7  1  0  0  0  0
  7 12  1  0  0  0  0
  8  7  2  0  0  0  0
  8  9  1  0  0  0  0
  9 10  2  0  0  0  0
 10 11  1  0  0  0  0
 11 13  1  0  0  0  0
 12 15  1  0  0  0  0
 12 11  2  0  0  0  0
 13 14  1  0  0  0  0
 15 16  1  0  0  0  0
 17  1  1  0  0  0  0
 18 19  1  0  0  0  0
 19 20  2  0  0  0  0
 20 17  1  0  0  0  0
 21 20  1  0  0  0  0
 22 21  2  0  0  0  0
 23 22  1  0  0  0  0
 23 18  2  0  0  0  0
 25 24  1  0  0  0  0
 25 18  1  0  0  0  0
 26 23  1  0  0  0  0
 27 26  1  0  0  0  0
M  END
>  <MODEL>
7

>  <REMARK>
 VINA RESULT:    -6.686      2.740      8.475
 INTER + INTRA:         -10.332
 INTER:                  -9.734
 INTRA:                  -0.599
 UNBOUND:                -0.715
  Name = CHEMBL4560140
  11 active torsions:
  status: ('A' for Active; 'I' for Inactive)
    1  A    between atoms: C_1  and  O_2
    2  A    between atoms: O_2  and  C_3
    3  A    between atoms: C_5  and  C_6
    4  A    between atoms: C_6  and  N_7
    5  A    between atoms: C_8  and  C_10
    6  A    between atoms: C_11  and  C_12
    7  A    between atoms: C_16  and  O_17
    8  A    between atoms: O_17  and  C_18
    9  A    between atoms: C_19  and  O_20
   10  A    between atoms: O_20  and  C_21
   11  A    between atoms: C_24  and  O_25
                            x       y       z     vdW  Elec       q    Type
                         _______ _______ _______ _____ _____    ______ ____

>  <TORSDO>
F 8

>  <SCORE>
-6.686

>  <RMSD_LB>
2.740

>  <RMSD_UB>
8.475

$$$$
CHEMBL4560140
 OpenBabel10172500323D

 27 28  0  0  0  0  0  0  0  0999 V2000
  139.2670  137.2800  150.7880 N   0  0  0  0  0  0  0  0  0  0  0  0
  138.1570  137.9210  150.2910 C   0  0  0  0  0  0  0  0  0  0  0  0
  138.1640  139.0700  149.8670 O   0  0  0  0  0  0  0  0  0  0  0  0
  139.1830  136.3440  151.0820 H   0  0  0  0  0  0  0  0  0  0  0  0
  136.9250  137.0910  150.3330 C   0  0  0  0  0  3  0  0  0  0  0  0
  137.0230  135.7720  150.5690 C   0  0  0  0  0  3  0  0  0  0  0  0
  135.8560  134.8760  150.6090 C   0  0  0  0  0  0  0  0  0  0  0  0
  135.2080  134.6990  151.8370 C   0  0  0  0  0  3  0  0  0  0  0  0
  134.0830  133.8880  151.9270 C   0  0  0  0  0  3  0  0  0  0  0  0
  133.5930  133.2450  150.7880 C   0  0  0  0  0  3  0  0  0  0  0  0
  134.2220  133.4050  149.5410 C   0  0  0  0  0  0  0  0  0  0  0  0
  135.3670  134.2270  149.4460 C   0  0  0  0  0  0  0  0  0  0  0  0
  133.7620  132.7920  148.4040 O   0  0  0  0  0  0  0  0  0  0  0  0
  132.6760  133.3730  147.6950 C   0  0  0  0  0  1  0  0  0  0  0  0
  136.1060  134.4970  148.3180 O   0  0  0  0  0  0  0  0  0  0  0  0
  135.6130  135.4140  147.3550 C   0  0  0  0  0  1  0  0  0  0  0  0
  140.5540  137.9370  150.8930 C   0  0  0  0  0  2  0  0  0  0  0  0
  140.3280  138.4600  154.6760 C   0  0  0  0  0  0  0  0  0  0  0  0
  139.9800  138.2190  153.3430 C   0  0  0  0  0  3  0  0  0  0  0  0
  140.9440  138.2540  152.3180 C   0  0  0  0  0  0  0  0  0  0  0  0
  142.2780  138.5260  152.6550 C   0  0  0  0  0  3  0  0  0  0  0  0
  142.6390  138.7660  153.9830 C   0  0  0  0  0  3  0  0  0  0  0  0
  141.6670  138.7360  154.9820 C   0  0  0  0  0  0  0  0  0  0  0  0
  138.0660  138.4590  155.4260 C   0  0  0  0  0  1  0  0  0  0  0  0
  139.4540  138.4380  155.7310 O   0  0  0  0  0  0  0  0  0  0  0  0
  142.0210  138.9710  156.2840 O   0  0  0  0  0  0  0  0  0  0  0  0
  142.9240  138.9460  156.5360 H   0  0  0  0  0  0  0  0  0  0  0  0
  1 17  1  0  0  0  0
  1  4  1  0  0  0  0
  2  5  1  0  0  0  0
  2  1  1  0  0  0  0
  3  2  2  0  0  0  0
  5  6  2  0  0  0  0
  6  7  1  0  0  0  0
  7  8  1  0  0  0  0
  8  9  2  0  0  0  0
 10  9  1  0  0  0  0
 11 10  2  0  0  0  0
 12 11  1  0  0  0  0
 12  7  2  0  0  0  0
 13 11  1  0  0  0  0
 14 13  1  0  0  0  0
 15 12  1  0  0  0  0
 16 15  1  0  0  0  0
 17 20  1  0  0  0  0
 18 23  1  0  0  0  0
 18 25  1  0  0  0  0
 19 18  2  0  0  0  0
 20 21  2  0  0  0  0
 20 19  1  0  0  0  0
 21 22  1  0  0  0  0
 22 23  2  0  0  0  0
 23 26  1  0  0  0  0
 24 25  1  0  0  0  0
 26 27  1  0  0  0  0
M  END
>  <MODEL>
8

>  <REMARK>
 VINA RESULT:    -6.601      2.405      4.144
 INTER + INTRA:         -10.210
 INTER:                  -9.557
 INTRA:                  -0.653
 UNBOUND:                -0.715
  Name = CHEMBL4560140
  11 active torsions:
  status: ('A' for Active; 'I' for Inactive)
    1  A    between atoms: C_1  and  O_2
    2  A    between atoms: O_2  and  C_3
    3  A    between atoms: C_5  and  C_6
    4  A    between atoms: C_6  and  N_7
    5  A    between atoms: C_8  and  C_10
    6  A    between atoms: C_11  and  C_12
    7  A    between atoms: C_16  and  O_17
    8  A    between atoms: O_17  and  C_18
    9  A    between atoms: C_19  and  O_20
   10  A    between atoms: O_20  and  C_21
   11  A    between atoms: C_24  and  O_25
                            x       y       z     vdW  Elec       q    Type
                         _______ _______ _______ _____ _____    ______ ____

>  <TORSDO>
F 8

>  <SCORE>
-6.601

>  <RMSD_LB>
2.405

>  <RMSD_UB>
4.144

$$$$
CHEMBL4560140
 OpenBabel10172500323D

 27 28  0  0  0  0  0  0  0  0999 V2000
  134.4760  134.8890  149.9900 N   0  0  0  0  0  0  0  0  0  0  0  0
  133.3130  135.6160  149.8940 C   0  0  0  0  0  0  0  0  0  0  0  0
  132.3720  135.5070  150.6710 O   0  0  0  0  0  0  0  0  0  0  0  0
  135.1970  135.0580  149.3420 H   0  0  0  0  0  0  0  0  0  0  0  0
  133.2910  136.5450  148.7350 C   0  0  0  0  0  3  0  0  0  0  0  0
  134.4010  136.7100  147.9970 C   0  0  0  0  0  3  0  0  0  0  0  0
  134.4680  137.6240  146.8450 C   0  0  0  0  0  0  0  0  0  0  0  0
  133.3020  137.8230  146.0970 C   0  0  0  0  0  3  0  0  0  0  0  0
  133.3010  138.6970  145.0170 C   0  0  0  0  0  3  0  0  0  0  0  0
  134.4680  139.3840  144.6730 C   0  0  0  0  0  3  0  0  0  0  0  0
  135.6540  139.2050  145.4060 C   0  0  0  0  0  0  0  0  0  0  0  0
  135.6600  138.3150  146.5040 C   0  0  0  0  0  0  0  0  0  0  0  0
  136.8130  139.8690  145.0980 O   0  0  0  0  0  0  0  0  0  0  0  0
  137.1110  140.1480  143.7370 C   0  0  0  0  0  1  0  0  0  0  0  0
  136.7200  138.0190  147.3280 O   0  0  0  0  0  0  0  0  0  0  0  0
  137.1410  138.9590  148.3020 C   0  0  0  0  0  1  0  0  0  0  0  0
  134.6730  133.8820  151.0150 C   0  0  0  0  0  2  0  0  0  0  0  0
  136.2430  136.1550  153.6620 C   0  0  0  0  0  0  0  0  0  0  0  0
  135.9230  135.5660  152.4340 C   0  0  0  0  0  3  0  0  0  0  0  0
  135.0460  134.4680  152.3570 C   0  0  0  0  0  0  0  0  0  0  0  0
  134.4800  133.9710  153.5400 C   0  0  0  0  0  3  0  0  0  0  0  0
  134.7890  134.5520  154.7730 C   0  0  0  0  0  3  0  0  0  0  0  0
  135.6680  135.6330  154.8280 C   0  0  0  0  0  0  0  0  0  0  0  0
  137.9930  137.5030  152.7700 C   0  0  0  0  0  1  0  0  0  0  0  0
  137.0800  137.2280  153.8230 O   0  0  0  0  0  0  0  0  0  0  0  0
  135.9710  136.2030  156.0360 O   0  0  0  0  0  0  0  0  0  0  0  0
  135.5860  137.0230  156.2780 H   0  0  0  0  0  0  0  0  0  0  0  0
  1 17  1  0  0  0  0
  2  1  1  0  0  0  0
  2  3  2  0  0  0  0
  4  1  1  0  0  0  0
  5  2  1  0  0  0  0
  6  5  2  0  0  0  0
  7  6  1  0  0  0  0
  8  7  2  0  0  0  0
  9  8  1  0  0  0  0
 10  9  2  0  0  0  0
 10 11  1  0  0  0  0
 11 12  2  0  0  0  0
 12  7  1  0  0  0  0
 12 15  1  0  0  0  0
 13 11  1  0  0  0  0
 14 13  1  0  0  0  0
 15 16  1  0  0  0  0
 17 20  1  0  0  0  0
 18 25  1  0  0  0  0
 18 23  1  0  0  0  0
 19 18  2  0  0  0  0
 20 19  1  0  0  0  0
 20 21  2  0  0  0  0
 21 22  1  0  0  0  0
 22 23  2  0  0  0  0
 23 26  1  0  0  0  0
 24 25  1  0  0  0  0
 26 27  1  0  0  0  0
M  END
>  <MODEL>
9

>  <REMARK>
 VINA RESULT:    -6.524      3.716      4.970
 INTER + INTRA:         -10.099
 INTER:                  -9.384
 INTRA:                  -0.715
 UNBOUND:                -0.715
  Name = CHEMBL4560140
  11 active torsions:
  status: ('A' for Active; 'I' for Inactive)
    1  A    between atoms: C_1  and  O_2
    2  A    between atoms: O_2  and  C_3
    3  A    between atoms: C_5  and  C_6
    4  A    between atoms: C_6  and  N_7
    5  A    between atoms: C_8  and  C_10
    6  A    between atoms: C_11  and  C_12
    7  A    between atoms: C_16  and  O_17
    8  A    between atoms: O_17  and  C_18
    9  A    between atoms: C_19  and  O_20
   10  A    between atoms: O_20  and  C_21
   11  A    between atoms: C_24  and  O_25
                            x       y       z     vdW  Elec       q    Type
                         _______ _______ _______ _____ _____    ______ ____

>  <TORSDO>
F 8

>  <SCORE>
-6.524

>  <RMSD_LB>
3.716

>  <RMSD_UB>
4.970

$$$$
