CHEMBL4538916
 OpenBabel10172500183D

 24 25  0  0  0  0  0  0  0  0999 V2000
  143.2820  138.9920  154.9500 N   0  0  0  0  0  0  0  0  0  0  0  0
  144.2820  139.3640  154.0790 C   0  0  0  0  0  0  0  0  0  0  0  0
  144.5300  138.7150  153.0700 O   0  0  0  0  0  0  0  0  0  0  0  0
  144.9680  140.4790  154.5200 N   0  0  0  0  0  0  0  0  0  0  0  0
  143.1030  139.5040  155.7720 H   0  0  0  0  0  0  0  0  0  0  0  0
  144.6610  140.9070  155.3510 H   0  0  0  0  0  0  0  0  0  0  0  0
  146.0830  141.0490  153.8590 C   0  0  0  0  0  0  0  0  0  0  0  0
  145.9610  141.8680  152.7300 C   0  0  0  0  0  3  0  0  0  0  0  0
  147.0900  142.3230  152.0480 C   0  0  0  0  0  3  0  0  0  0  0  0
  148.3580  141.9800  152.5060 C   0  0  0  0  0  0  0  0  0  0  0  0
  149.7470  142.4970  151.6350 Cl  0  0  0  0  0  0  0  0  0  0  0  0
  148.4990  141.2140  153.6610 C   0  0  0  0  0  3  0  0  0  0  0  0
  147.3640  140.7580  154.3450 C   0  0  0  0  0  3  0  0  0  0  0  0
  142.5000  137.8170  154.6100 C   0  0  0  0  0  2  0  0  0  0  0  0
  138.9660  137.9940  156.0430 C   0  0  0  0  0  0  0  0  0  0  0  0
  140.3260  137.7020  155.9000 C   0  0  0  0  0  3  0  0  0  0  0  0
  141.0200  138.0590  154.7310 C   0  0  0  0  0  0  0  0  0  0  0  0
  140.3340  138.7250  153.7050 C   0  0  0  0  0  3  0  0  0  0  0  0
  138.9770  139.0190  153.8350 C   0  0  0  0  0  3  0  0  0  0  0  0
  138.3010  138.6510  154.9980 C   0  0  0  0  0  0  0  0  0  0  0  0
  137.4990  136.4680  157.1420 C   0  0  0  0  0  1  0  0  0  0  0  0
  138.2110  137.6970  157.1480 O   0  0  0  0  0  0  0  0  0  0  0  0
  136.9680  138.9400  155.1260 O   0  0  0  0  0  0  0  0  0  0  0  0
  136.5580  138.8990  155.9670 H   0  0  0  0  0  0  0  0  0  0  0  0
  1  5  1  0  0  0  0
  2  4  1  0  0  0  0
  2  1  1  0  0  0  0
  3  2  2  0  0  0  0
  4  6  1  0  0  0  0
  7 13  1  0  0  0  0
  7  4  1  0  0  0  0
  8  7  2  0  0  0  0
  9 10  2  0  0  0  0
  9  8  1  0  0  0  0
 10 12  1  0  0  0  0
 11 10  1  0  0  0  0
 12 13  2  0  0  0  0
 14 17  1  0  0  0  0
 14  1  1  0  0  0  0
 15 22  1  0  0  0  0
 16 15  1  0  0  0  0
 17 16  2  0  0  0  0
 18 19  2  0  0  0  0
 18 17  1  0  0  0  0
 19 20  1  0  0  0  0
 20 23  1  0  0  0  0
 20 15  2  0  0  0  0
 21 22  1  0  0  0  0
 23 24  1  0  0  0  0
M  END
>  <MODEL>
1

>  <REMARK>
 VINA RESULT:    -7.558      0.000      0.000
 INTER + INTRA:          -9.929
 INTER:                  -9.644
 INTRA:                  -0.285
 UNBOUND:                -0.382
  Name = CHEMBL4538916
  6 active torsions:
  status: ('A' for Active; 'I' for Inactive)
    1  A    between atoms: C_1  and  O_2
    2  A    between atoms: O_2  and  C_3
    3  A    between atoms: C_5  and  C_6
    4  A    between atoms: C_6  and  N_7
    5  A    between atoms: N_10  and  C_11
    6  A    between atoms: C_20  and  O_21
                            x       y       z     vdW  Elec       q    Type
                         _______ _______ _______ _____ _____    ______ ____

>  <TORSDO>
F 5

>  <SCORE>
-7.558

>  <RMSD_LB>
0.000

>  <RMSD_UB>
0.000

$$$$
CHEMBL4538916
 OpenBabel10172500183D

 24 25  0  0  0  0  0  0  0  0999 V2000
  142.9520  139.6920  152.5960 N   0  0  0  0  0  0  0  0  0  0  0  0
  142.2520  138.7930  153.3680 C   0  0  0  0  0  0  0  0  0  0  0  0
  142.7050  137.6870  153.6380 O   0  0  0  0  0  0  0  0  0  0  0  0
  141.0050  139.2710  153.7230 N   0  0  0  0  0  0  0  0  0  0  0  0
  142.5730  140.5710  152.3620 H   0  0  0  0  0  0  0  0  0  0  0  0
  140.7670  140.1830  153.4410 H   0  0  0  0  0  0  0  0  0  0  0  0
  140.0450  138.5400  154.4620 C   0  0  0  0  0  0  0  0  0  0  0  0
  140.2620  138.1140  155.7790 C   0  0  0  0  0  3  0  0  0  0  0  0
  139.3320  137.3070  156.4350 C   0  0  0  0  0  3  0  0  0  0  0  0
  138.1600  136.9350  155.7840 C   0  0  0  0  0  0  0  0  0  0  0  0
  137.0410  135.8960  156.5730 Cl  0  0  0  0  0  0  0  0  0  0  0  0
  137.9010  137.3960  154.4960 C   0  0  0  0  0  3  0  0  0  0  0  0
  138.8360  138.2070  153.8380 C   0  0  0  0  0  3  0  0  0  0  0  0
  144.2730  139.2970  152.1380 C   0  0  0  0  0  2  0  0  0  0  0  0
  147.3070  139.9220  154.3690 C   0  0  0  0  0  0  0  0  0  0  0  0
  146.2390  139.2830  153.7300 C   0  0  0  0  0  3  0  0  0  0  0  0
  145.3720  139.9990  152.8870 C   0  0  0  0  0  0  0  0  0  0  0  0
  145.5960  141.3680  152.6790 C   0  0  0  0  0  3  0  0  0  0  0  0
  146.6550  142.0170  153.3120 C   0  0  0  0  0  3  0  0  0  0  0  0
  147.5010  141.2940  154.1530 C   0  0  0  0  0  0  0  0  0  0  0  0
  147.7180  138.2830  156.0500 C   0  0  0  0  0  1  0  0  0  0  0  0
  148.2090  139.3060  155.1960 O   0  0  0  0  0  0  0  0  0  0  0  0
  148.5430  141.9310  154.7750 O   0  0  0  0  0  0  0  0  0  0  0  0
  149.3810  141.5160  154.8290 H   0  0  0  0  0  0  0  0  0  0  0  0
  1  2  1  0  0  0  0
  2  3  2  0  0  0  0
  2  4  1  0  0  0  0
  4  7  1  0  0  0  0
  5  1  1  0  0  0  0
  6  4  1  0  0  0  0
  7  8  1  0  0  0  0
  8  9  2  0  0  0  0
 10  9  1  0  0  0  0
 10 11  1  0  0  0  0
 12 10  2  0  0  0  0
 13  7  2  0  0  0  0
 13 12  1  0  0  0  0
 14  1  1  0  0  0  0
 14 17  1  0  0  0  0
 15 22  1  0  0  0  0
 16 15  2  0  0  0  0
 17 16  1  0  0  0  0
 18 17  2  0  0  0  0
 18 19  1  0  0  0  0
 19 20  2  0  0  0  0
 20 15  1  0  0  0  0
 20 23  1  0  0  0  0
 22 21  1  0  0  0  0
 23 24  1  0  0  0  0
M  END
>  <MODEL>
2

>  <REMARK>
 VINA RESULT:    -7.229      4.025      8.520
 INTER + INTRA:          -9.513
 INTER:                  -9.129
 INTRA:                  -0.384
 UNBOUND:                -0.382
  Name = CHEMBL4538916
  6 active torsions:
  status: ('A' for Active; 'I' for Inactive)
    1  A    between atoms: C_1  and  O_2
    2  A    between atoms: O_2  and  C_3
    3  A    between atoms: C_5  and  C_6
    4  A    between atoms: C_6  and  N_7
    5  A    between atoms: N_10  and  C_11
    6  A    between atoms: C_20  and  O_21
                            x       y       z     vdW  Elec       q    Type
                         _______ _______ _______ _____ _____    ______ ____

>  <TORSDO>
F 5

>  <SCORE>
-7.229

>  <RMSD_LB>
4.025

>  <RMSD_UB>
8.520

$$$$
CHEMBL4538916
 OpenBabel10172500183D

 24 25  0  0  0  0  0  0  0  0999 V2000
  143.5240  139.8960  154.4940 N   0  0  0  0  0  0  0  0  0  0  0  0
  142.5690  138.9080  154.4090 C   0  0  0  0  0  0  0  0  0  0  0  0
  142.8160  137.8150  153.9140 O   0  0  0  0  0  0  0  0  0  0  0  0
  141.3410  139.3290  154.8820 N   0  0  0  0  0  0  0  0  0  0  0  0
  143.3130  140.7810  154.8720 H   0  0  0  0  0  0  0  0  0  0  0  0
  141.2820  140.2370  155.2580 H   0  0  0  0  0  0  0  0  0  0  0  0
  140.1610  138.5470  154.8620 C   0  0  0  0  0  0  0  0  0  0  0  0
  139.2770  138.5330  153.7760 C   0  0  0  0  0  3  0  0  0  0  0  0
  138.0740  137.8290  153.8380 C   0  0  0  0  0  3  0  0  0  0  0  0
  137.7530  137.1120  154.9870 C   0  0  0  0  0  0  0  0  0  0  0  0
  136.2470  136.2890  155.0840 Cl  0  0  0  0  0  0  0  0  0  0  0  0
  138.6460  137.0680  156.0540 C   0  0  0  0  0  3  0  0  0  0  0  0
  139.8550  137.7740  155.9890 C   0  0  0  0  0  3  0  0  0  0  0  0
  144.8560  139.5840  154.0070 C   0  0  0  0  0  2  0  0  0  0  0  0
  145.0300  140.8550  150.4110 C   0  0  0  0  0  0  0  0  0  0  0  0
  144.7460  140.0560  151.5230 C   0  0  0  0  0  3  0  0  0  0  0  0
  145.2290  140.3990  152.7980 C   0  0  0  0  0  0  0  0  0  0  0  0
  145.9950  141.5640  152.9490 C   0  0  0  0  0  3  0  0  0  0  0  0
  146.2880  142.3660  151.8470 C   0  0  0  0  0  3  0  0  0  0  0  0
  145.8090  142.0080  150.5880 C   0  0  0  0  0  0  0  0  0  0  0  0
  143.4160  139.8310  148.9870 C   0  0  0  0  0  1  0  0  0  0  0  0
  144.5940  140.6090  149.1350 O   0  0  0  0  0  0  0  0  0  0  0  0
  146.0960  142.7970  149.5050 O   0  0  0  0  0  0  0  0  0  0  0  0
  146.6290  142.4640  148.8110 H   0  0  0  0  0  0  0  0  0  0  0  0
  1  5  1  0  0  0  0
  2  1  1  0  0  0  0
  2  4  1  0  0  0  0
  3  2  2  0  0  0  0
  4  6  1  0  0  0  0
  7  4  1  0  0  0  0
  7 13  1  0  0  0  0
  8  9  1  0  0  0  0
  8  7  2  0  0  0  0
  9 10  2  0  0  0  0
 10 11  1  0  0  0  0
 10 12  1  0  0  0  0
 13 12  2  0  0  0  0
 14  1  1  0  0  0  0
 15 20  2  0  0  0  0
 15 16  1  0  0  0  0
 16 17  2  0  0  0  0
 17 18  1  0  0  0  0
 17 14  1  0  0  0  0
 19 18  2  0  0  0  0
 20 19  1  0  0  0  0
 21 22  1  0  0  0  0
 22 15  1  0  0  0  0
 23 20  1  0  0  0  0
 24 23  1  0  0  0  0
M  END
>  <MODEL>
3

>  <REMARK>
 VINA RESULT:    -7.180      4.065      8.450
 INTER + INTRA:          -9.451
 INTER:                  -8.953
 INTRA:                  -0.498
 UNBOUND:                -0.382
  Name = CHEMBL4538916
  6 active torsions:
  status: ('A' for Active; 'I' for Inactive)
    1  A    between atoms: C_1  and  O_2
    2  A    between atoms: O_2  and  C_3
    3  A    between atoms: C_5  and  C_6
    4  A    between atoms: C_6  and  N_7
    5  A    between atoms: N_10  and  C_11
    6  A    between atoms: C_20  and  O_21
                            x       y       z     vdW  Elec       q    Type
                         _______ _______ _______ _____ _____    ______ ____

>  <TORSDO>
F 5

>  <SCORE>
-7.180

>  <RMSD_LB>
4.065

>  <RMSD_UB>
8.450

$$$$
CHEMBL4538916
 OpenBabel10172500183D

 24 25  0  0  0  0  0  0  0  0999 V2000
  139.4130  138.3330  155.3160 N   0  0  0  0  0  0  0  0  0  0  0  0
  138.1750  138.0860  155.8670 C   0  0  0  0  0  0  0  0  0  0  0  0
  137.1540  138.5740  155.3990 O   0  0  0  0  0  0  0  0  0  0  0  0
  138.2580  137.3010  157.0010 N   0  0  0  0  0  0  0  0  0  0  0  0
  140.2340  137.9580  155.7110 H   0  0  0  0  0  0  0  0  0  0  0  0
  139.1470  136.9730  157.2670 H   0  0  0  0  0  0  0  0  0  0  0  0
  137.1530  136.9390  157.8090 C   0  0  0  0  0  0  0  0  0  0  0  0
  136.6660  137.7510  158.8400 C   0  0  0  0  0  3  0  0  0  0  0  0
  135.6430  137.3100  159.6790 C   0  0  0  0  0  3  0  0  0  0  0  0
  135.0790  136.0540  159.4780 C   0  0  0  0  0  0  0  0  0  0  0  0
  133.8550  135.4900  160.5450 Cl  0  0  0  0  0  0  0  0  0  0  0  0
  135.5110  135.2560  158.4220 C   0  0  0  0  0  3  0  0  0  0  0  0
  136.5390  135.7010  157.5790 C   0  0  0  0  0  3  0  0  0  0  0  0
  139.4640  139.1680  154.1290 C   0  0  0  0  0  2  0  0  0  0  0  0
  139.1610  137.3980  150.7600 C   0  0  0  0  0  0  0  0  0  0  0  0
  138.8260  138.0610  151.9450 C   0  0  0  0  0  3  0  0  0  0  0  0
  139.8120  138.3850  152.8920 C   0  0  0  0  0  0  0  0  0  0  0  0
  141.1480  138.0450  152.6330 C   0  0  0  0  0  3  0  0  0  0  0  0
  141.4940  137.3820  151.4560 C   0  0  0  0  0  3  0  0  0  0  0  0
  140.5030  137.0600  150.5300 C   0  0  0  0  0  0  0  0  0  0  0  0
  137.6410  138.1090  149.0660 C   0  0  0  0  0  1  0  0  0  0  0  0
  138.2730  137.0530  149.7750 O   0  0  0  0  0  0  0  0  0  0  0  0
  140.8420  136.4090  149.3740 O   0  0  0  0  0  0  0  0  0  0  0  0
  141.7430  136.3270  149.1290 H   0  0  0  0  0  0  0  0  0  0  0  0
  1  5  1  0  0  0  0
  1  2  1  0  0  0  0
  2  4  1  0  0  0  0
  3  2  2  0  0  0  0
  4  6  1  0  0  0  0
  4  7  1  0  0  0  0
  7  8  1  0  0  0  0
  8  9  2  0  0  0  0
 10  9  1  0  0  0  0
 10 11  1  0  0  0  0
 12 10  2  0  0  0  0
 13  7  2  0  0  0  0
 13 12  1  0  0  0  0
 14  1  1  0  0  0  0
 15 16  1  0  0  0  0
 16 17  2  0  0  0  0
 17 14  1  0  0  0  0
 18 17  1  0  0  0  0
 19 18  2  0  0  0  0
 20 15  2  0  0  0  0
 20 19  1  0  0  0  0
 21 22  1  0  0  0  0
 22 15  1  0  0  0  0
 23 20  1  0  0  0  0
 24 23  1  0  0  0  0
M  END
>  <MODEL>
4

>  <REMARK>
 VINA RESULT:    -7.035      6.214      9.640
 INTER + INTRA:          -9.268
 INTER:                  -8.789
 INTRA:                  -0.479
 UNBOUND:                -0.382
  Name = CHEMBL4538916
  6 active torsions:
  status: ('A' for Active; 'I' for Inactive)
    1  A    between atoms: C_1  and  O_2
    2  A    between atoms: O_2  and  C_3
    3  A    between atoms: C_5  and  C_6
    4  A    between atoms: C_6  and  N_7
    5  A    between atoms: N_10  and  C_11
    6  A    between atoms: C_20  and  O_21
                            x       y       z     vdW  Elec       q    Type
                         _______ _______ _______ _____ _____    ______ ____

>  <TORSDO>
F 5

>  <SCORE>
-7.035

>  <RMSD_LB>
6.214

>  <RMSD_UB>
9.640

$$$$
CHEMBL4538916
 OpenBabel10172500183D

 24 25  0  0  0  0  0  0  0  0999 V2000
  133.4130  134.8070  146.3500 N   0  0  0  0  0  0  0  0  0  0  0  0
  134.0260  135.8930  145.7650 C   0  0  0  0  0  0  0  0  0  0  0  0
  135.2310  136.0860  145.8700 O   0  0  0  0  0  0  0  0  0  0  0  0
  133.1200  136.7210  145.1300 N   0  0  0  0  0  0  0  0  0  0  0  0
  132.4400  134.6710  146.2830 H   0  0  0  0  0  0  0  0  0  0  0  0
  132.1760  136.4450  145.1190 H   0  0  0  0  0  0  0  0  0  0  0  0
  133.4560  137.9420  144.4950 C   0  0  0  0  0  0  0  0  0  0  0  0
  133.1580  139.1930  145.0480 C   0  0  0  0  0  3  0  0  0  0  0  0
  133.4120  140.3690  144.3410 C   0  0  0  0  0  3  0  0  0  0  0  0
  133.9920  140.3030  143.0780 C   0  0  0  0  0  0  0  0  0  0  0  0
  134.2570  141.7490  142.1860 Cl  0  0  0  0  0  0  0  0  0  0  0  0
  134.3490  139.0710  142.5380 C   0  0  0  0  0  3  0  0  0  0  0  0
  134.0930  137.8900  143.2490 C   0  0  0  0  0  3  0  0  0  0  0  0
  134.2560  133.8700  147.0710 C   0  0  0  0  0  2  0  0  0  0  0  0
  134.8790  134.4970  150.7850 C   0  0  0  0  0  0  0  0  0  0  0  0
  135.0910  134.3570  149.4100 C   0  0  0  0  0  3  0  0  0  0  0  0
  134.0510  133.9430  148.5600 C   0  0  0  0  0  0  0  0  0  0  0  0
  132.7860  133.6790  149.1050 C   0  0  0  0  0  3  0  0  0  0  0  0
  132.5640  133.8110  150.4750 C   0  0  0  0  0  3  0  0  0  0  0  0
  133.6080  134.2150  151.3060 C   0  0  0  0  0  0  0  0  0  0  0  0
  136.3450  136.2190  151.5400 C   0  0  0  0  0  1  0  0  0  0  0  0
  135.8260  134.9060  151.6880 O   0  0  0  0  0  0  0  0  0  0  0  0
  133.3890  134.3460  152.6520 O   0  0  0  0  0  0  0  0  0  0  0  0
  132.6540  133.9250  153.0510 H   0  0  0  0  0  0  0  0  0  0  0  0
  1 14  1  0  0  0  0
  2  3  2  0  0  0  0
  2  1  1  0  0  0  0
  4  2  1  0  0  0  0
  5  1  1  0  0  0  0
  6  4  1  0  0  0  0
  7  8  1  0  0  0  0
  7  4  1  0  0  0  0
  9  8  2  0  0  0  0
 10  9  1  0  0  0  0
 11 10  1  0  0  0  0
 12 10  2  0  0  0  0
 12 13  1  0  0  0  0
 13  7  2  0  0  0  0
 14 17  1  0  0  0  0
 15 20  1  0  0  0  0
 15 22  1  0  0  0  0
 16 15  2  0  0  0  0
 17 18  2  0  0  0  0
 17 16  1  0  0  0  0
 18 19  1  0  0  0  0
 19 20  2  0  0  0  0
 20 23  1  0  0  0  0
 21 22  1  0  0  0  0
 23 24  1  0  0  0  0
M  END
>  <MODEL>
5

>  <REMARK>
 VINA RESULT:    -6.907     10.432     12.910
 INTER + INTRA:          -9.107
 INTER:                  -8.654
 INTRA:                  -0.453
 UNBOUND:                -0.382
  Name = CHEMBL4538916
  6 active torsions:
  status: ('A' for Active; 'I' for Inactive)
    1  A    between atoms: C_1  and  O_2
    2  A    between atoms: O_2  and  C_3
    3  A    between atoms: C_5  and  C_6
    4  A    between atoms: C_6  and  N_7
    5  A    between atoms: N_10  and  C_11
    6  A    between atoms: C_20  and  O_21
                            x       y       z     vdW  Elec       q    Type
                         _______ _______ _______ _____ _____    ______ ____

>  <TORSDO>
F 5

>  <SCORE>
-6.907

>  <RMSD_LB>
10.432

>  <RMSD_UB>
12.910

$$$$
CHEMBL4538916
 OpenBabel10172500183D

 24 25  0  0  0  0  0  0  0  0999 V2000
  139.8760  137.3100  156.4430 N   0  0  0  0  0  0  0  0  0  0  0  0
  140.3980  138.1630  155.4960 C   0  0  0  0  0  0  0  0  0  0  0  0
  139.8600  139.2290  155.2240 O   0  0  0  0  0  0  0  0  0  0  0  0
  141.5210  137.6390  154.8860 N   0  0  0  0  0  0  0  0  0  0  0  0
  140.3000  136.4430  156.6400 H   0  0  0  0  0  0  0  0  0  0  0  0
  141.8510  136.7680  155.2040 H   0  0  0  0  0  0  0  0  0  0  0  0
  142.2310  138.2670  153.8340 C   0  0  0  0  0  0  0  0  0  0  0  0
  143.4140  138.9880  154.0400 C   0  0  0  0  0  3  0  0  0  0  0  0
  144.0250  139.6780  152.9920 C   0  0  0  0  0  3  0  0  0  0  0  0
  143.4670  139.6340  151.7180 C   0  0  0  0  0  0  0  0  0  0  0  0
  144.1900  140.5280  150.4410 Cl  0  0  0  0  0  0  0  0  0  0  0  0
  142.3240  138.8750  151.4840 C   0  0  0  0  0  3  0  0  0  0  0  0
  141.7110  138.1810  152.5370 C   0  0  0  0  0  3  0  0  0  0  0  0
  138.6760  137.7370  157.1410 C   0  0  0  0  0  2  0  0  0  0  0  0
  135.7530  135.4040  157.9060 C   0  0  0  0  0  0  0  0  0  0  0  0
  136.8610  136.2420  158.0740 C   0  0  0  0  0  3  0  0  0  0  0  0
  137.5350  136.7740  156.9610 C   0  0  0  0  0  0  0  0  0  0  0  0
  137.0780  136.4640  155.6720 C   0  0  0  0  0  3  0  0  0  0  0  0
  135.9770  135.6280  155.4930 C   0  0  0  0  0  3  0  0  0  0  0  0
  135.3230  135.1020  156.6060 C   0  0  0  0  0  0  0  0  0  0  0  0
  134.2070  135.7200  159.6940 C   0  0  0  0  0  1  0  0  0  0  0  0
  135.0270  134.8500  158.9280 O   0  0  0  0  0  0  0  0  0  0  0  0
  134.2410  134.2810  156.4310 O   0  0  0  0  0  0  0  0  0  0  0  0
  134.3660  133.3850  156.1870 H   0  0  0  0  0  0  0  0  0  0  0  0
  1  5  1  0  0  0  0
  1 14  1  0  0  0  0
  2  1  1  0  0  0  0
  3  2  2  0  0  0  0
  4  6  1  0  0  0  0
  4  2  1  0  0  0  0
  7  8  1  0  0  0  0
  7  4  1  0  0  0  0
  9  8  2  0  0  0  0
 10  9  1  0  0  0  0
 11 10  1  0  0  0  0
 12 10  2  0  0  0  0
 12 13  1  0  0  0  0
 13  7  2  0  0  0  0
 15 16  1  0  0  0  0
 15 22  1  0  0  0  0
 17 14  1  0  0  0  0
 17 16  2  0  0  0  0
 18 17  1  0  0  0  0
 19 18  2  0  0  0  0
 19 20  1  0  0  0  0
 20 15  2  0  0  0  0
 22 21  1  0  0  0  0
 23 20  1  0  0  0  0
 24 23  1  0  0  0  0
M  END
>  <MODEL>
6

>  <REMARK>
 VINA RESULT:    -6.874      3.220      4.933
 INTER + INTRA:          -9.065
 INTER:                  -8.650
 INTRA:                  -0.415
 UNBOUND:                -0.382
  Name = CHEMBL4538916
  6 active torsions:
  status: ('A' for Active; 'I' for Inactive)
    1  A    between atoms: C_1  and  O_2
    2  A    between atoms: O_2  and  C_3
    3  A    between atoms: C_5  and  C_6
    4  A    between atoms: C_6  and  N_7
    5  A    between atoms: N_10  and  C_11
    6  A    between atoms: C_20  and  O_21
                            x       y       z     vdW  Elec       q    Type
                         _______ _______ _______ _____ _____    ______ ____

>  <TORSDO>
F 5

>  <SCORE>
-6.874

>  <RMSD_LB>
3.220

>  <RMSD_UB>
4.933

$$$$
CHEMBL4538916
 OpenBabel10172500183D

 24 25  0  0  0  0  0  0  0  0999 V2000
  142.8860  139.6440  153.8840 N   0  0  0  0  0  0  0  0  0  0  0  0
  142.0250  138.6270  154.2350 C   0  0  0  0  0  0  0  0  0  0  0  0
  142.3680  137.4520  154.1920 O   0  0  0  0  0  0  0  0  0  0  0  0
  140.7690  139.0990  154.5630 N   0  0  0  0  0  0  0  0  0  0  0  0
  142.5970  140.5860  153.8970 H   0  0  0  0  0  0  0  0  0  0  0  0
  140.6300  140.0730  154.5590 H   0  0  0  0  0  0  0  0  0  0  0  0
  139.6670  138.2780  154.9040 C   0  0  0  0  0  0  0  0  0  0  0  0
  138.6260  137.9930  154.0120 C   0  0  0  0  0  3  0  0  0  0  0  0
  137.5080  137.2660  154.4210 C   0  0  0  0  0  3  0  0  0  0  0  0
  137.4320  136.7950  155.7280 C   0  0  0  0  0  0  0  0  0  0  0  0
  136.0310  135.9450  156.2460 Cl  0  0  0  0  0  0  0  0  0  0  0  0
  138.4840  137.0180  156.6120 C   0  0  0  0  0  3  0  0  0  0  0  0
  139.6070  137.7490  156.2000 C   0  0  0  0  0  3  0  0  0  0  0  0
  144.2350  139.2760  153.4930 C   0  0  0  0  0  2  0  0  0  0  0  0
  146.5920  141.6550  151.6600 C   0  0  0  0  0  0  0  0  0  0  0  0
  146.0280  140.8540  152.6590 C   0  0  0  0  0  3  0  0  0  0  0  0
  144.8020  140.2000  152.4500 C   0  0  0  0  0  0  0  0  0  0  0  0
  144.1480  140.3480  151.2180 C   0  0  0  0  0  3  0  0  0  0  0  0
  144.6990  141.1460  150.2160 C   0  0  0  0  0  3  0  0  0  0  0  0
  145.9120  141.7950  150.4420 C   0  0  0  0  0  0  0  0  0  0  0  0
  148.9550  141.5360  151.9500 C   0  0  0  0  0  1  0  0  0  0  0  0
  147.7850  142.3200  151.7670 O   0  0  0  0  0  0  0  0  0  0  0  0
  146.4540  142.5780  149.4570 O   0  0  0  0  0  0  0  0  0  0  0  0
  146.0450  142.6230  148.6150 H   0  0  0  0  0  0  0  0  0  0  0  0
  1  5  1  0  0  0  0
  1  2  1  0  0  0  0
  2  4  1  0  0  0  0
  3  2  2  0  0  0  0
  4  7  1  0  0  0  0
  6  4  1  0  0  0  0
  7 13  1  0  0  0  0
  8  9  1  0  0  0  0
  8  7  2  0  0  0  0
  9 10  2  0  0  0  0
 10 11  1  0  0  0  0
 10 12  1  0  0  0  0
 13 12  2  0  0  0  0
 14  1  1  0  0  0  0
 15 22  1  0  0  0  0
 15 16  1  0  0  0  0
 17 16  2  0  0  0  0
 17 14  1  0  0  0  0
 18 17  1  0  0  0  0
 19 20  1  0  0  0  0
 19 18  2  0  0  0  0
 20 15  2  0  0  0  0
 22 21  1  0  0  0  0
 23 20  1  0  0  0  0
 24 23  1  0  0  0  0
M  END
>  <MODEL>
7

>  <REMARK>
 VINA RESULT:    -6.719      4.159      8.954
 INTER + INTRA:          -8.869
 INTER:                  -8.505
 INTRA:                  -0.364
 UNBOUND:                -0.382
  Name = CHEMBL4538916
  6 active torsions:
  status: ('A' for Active; 'I' for Inactive)
    1  A    between atoms: C_1  and  O_2
    2  A    between atoms: O_2  and  C_3
    3  A    between atoms: C_5  and  C_6
    4  A    between atoms: C_6  and  N_7
    5  A    between atoms: N_10  and  C_11
    6  A    between atoms: C_20  and  O_21
                            x       y       z     vdW  Elec       q    Type
                         _______ _______ _______ _____ _____    ______ ____

>  <TORSDO>
F 5

>  <SCORE>
-6.719

>  <RMSD_LB>
4.159

>  <RMSD_UB>
8.954

$$$$
CHEMBL4538916
 OpenBabel10172500183D

 24 25  0  0  0  0  0  0  0  0999 V2000
  145.8950  138.7580  149.9840 N   0  0  0  0  0  0  0  0  0  0  0  0
  144.5410  138.9060  150.1920 C   0  0  0  0  0  0  0  0  0  0  0  0
  144.0270  140.0110  150.3130 O   0  0  0  0  0  0  0  0  0  0  0  0
  143.8960  137.6900  150.3000 N   0  0  0  0  0  0  0  0  0  0  0  0
  146.3070  137.8660  149.9120 H   0  0  0  0  0  0  0  0  0  0  0  0
  144.4320  136.8740  150.1780 H   0  0  0  0  0  0  0  0  0  0  0  0
  142.5150  137.5350  150.5740 C   0  0  0  0  0  0  0  0  0  0  0  0
  141.5550  137.3620  149.5700 C   0  0  0  0  0  3  0  0  0  0  0  0
  140.1950  137.3180  149.8770 C   0  0  0  0  0  3  0  0  0  0  0  0
  139.7820  137.4240  151.2010 C   0  0  0  0  0  0  0  0  0  0  0  0
  138.1040  137.4230  151.5740 Cl  0  0  0  0  0  0  0  0  0  0  0  0
  140.7270  137.5380  152.2190 C   0  0  0  0  0  3  0  0  0  0  0  0
  142.0930  137.5820  151.9090 C   0  0  0  0  0  3  0  0  0  0  0  0
  146.6930  139.9670  149.8770 C   0  0  0  0  0  2  0  0  0  0  0  0
  147.9530  139.8410  153.4780 C   0  0  0  0  0  0  0  0  0  0  0  0
  147.3340  139.4830  152.2760 C   0  0  0  0  0  3  0  0  0  0  0  0
  147.2870  140.3800  151.1950 C   0  0  0  0  0  0  0  0  0  0  0  0
  147.8820  141.6430  151.3290 C   0  0  0  0  0  3  0  0  0  0  0  0
  148.4990  142.0130  152.5230 C   0  0  0  0  0  3  0  0  0  0  0  0
  148.5300  141.1140  153.5890 C   0  0  0  0  0  0  0  0  0  0  0  0
  146.8820  138.8110  155.3420 C   0  0  0  0  0  1  0  0  0  0  0  0
  148.0580  139.0310  154.5780 O   0  0  0  0  0  0  0  0  0  0  0  0
  149.1370  141.4760  154.7620 O   0  0  0  0  0  0  0  0  0  0  0  0
  149.0180  140.9560  155.5320 H   0  0  0  0  0  0  0  0  0  0  0  0
  1  2  1  0  0  0  0
  2  4  1  0  0  0  0
  2  3  2  0  0  0  0
  4  7  1  0  0  0  0
  5  1  1  0  0  0  0
  6  4  1  0  0  0  0
  7 13  1  0  0  0  0
  8  9  1  0  0  0  0
  8  7  2  0  0  0  0
  9 10  2  0  0  0  0
 10 11  1  0  0  0  0
 10 12  1  0  0  0  0
 13 12  2  0  0  0  0
 14  1  1  0  0  0  0
 14 17  1  0  0  0  0
 15 20  1  0  0  0  0
 15 22  1  0  0  0  0
 16 15  2  0  0  0  0
 17 18  2  0  0  0  0
 17 16  1  0  0  0  0
 18 19  1  0  0  0  0
 19 20  2  0  0  0  0
 20 23  1  0  0  0  0
 22 21  1  0  0  0  0
 23 24  1  0  0  0  0
M  END
>  <MODEL>
8

>  <REMARK>
 VINA RESULT:    -6.485      4.929      8.516
 INTER + INTRA:          -8.573
 INTER:                  -8.133
 INTRA:                  -0.440
 UNBOUND:                -0.382
  Name = CHEMBL4538916
  6 active torsions:
  status: ('A' for Active; 'I' for Inactive)
    1  A    between atoms: C_1  and  O_2
    2  A    between atoms: O_2  and  C_3
    3  A    between atoms: C_5  and  C_6
    4  A    between atoms: C_6  and  N_7
    5  A    between atoms: N_10  and  C_11
    6  A    between atoms: C_20  and  O_21
                            x       y       z     vdW  Elec       q    Type
                         _______ _______ _______ _____ _____    ______ ____

>  <TORSDO>
F 5

>  <SCORE>
-6.485

>  <RMSD_LB>
4.929

>  <RMSD_UB>
8.516

$$$$
CHEMBL4538916
 OpenBabel10172500183D

 24 25  0  0  0  0  0  0  0  0999 V2000
  138.4490  137.6210  151.7990 N   0  0  0  0  0  0  0  0  0  0  0  0
  137.6950  136.8390  150.9520 C   0  0  0  0  0  0  0  0  0  0  0  0
  138.0500  136.6100  149.8020 O   0  0  0  0  0  0  0  0  0  0  0  0
  136.5140  136.4270  151.5370 N   0  0  0  0  0  0  0  0  0  0  0  0
  138.1460  137.8210  152.7150 H   0  0  0  0  0  0  0  0  0  0  0  0
  136.3540  136.6810  152.4740 H   0  0  0  0  0  0  0  0  0  0  0  0
  135.5160  135.6640  150.8830 C   0  0  0  0  0  0  0  0  0  0  0  0
  135.4020  134.2760  151.0280 C   0  0  0  0  0  3  0  0  0  0  0  0
  134.4720  133.5500  150.2850 C   0  0  0  0  0  3  0  0  0  0  0  0
  133.6260  134.2140  149.4010 C   0  0  0  0  0  0  0  0  0  0  0  0
  132.5160  133.3130  148.4460 Cl  0  0  0  0  0  0  0  0  0  0  0  0
  133.6850  135.6000  149.2870 C   0  0  0  0  0  3  0  0  0  0  0  0
  134.6210  136.3280  150.0350 C   0  0  0  0  0  3  0  0  0  0  0  0
  139.7070  138.1380  151.2910 C   0  0  0  0  0  2  0  0  0  0  0  0
  141.2090  138.6210  154.7680 C   0  0  0  0  0  0  0  0  0  0  0  0
  140.2930  138.3620  153.7430 C   0  0  0  0  0  3  0  0  0  0  0  0
  140.6670  138.4930  152.3940 C   0  0  0  0  0  0  0  0  0  0  0  0
  141.9790  138.8770  152.0830 C   0  0  0  0  0  3  0  0  0  0  0  0
  142.9000  139.1400  153.0960 C   0  0  0  0  0  3  0  0  0  0  0  0
  142.5110  139.0140  154.4290 C   0  0  0  0  0  0  0  0  0  0  0  0
  140.3050  137.3170  156.5490 C   0  0  0  0  0  1  0  0  0  0  0  0
  140.9400  138.5080  156.1070 O   0  0  0  0  0  0  0  0  0  0  0  0
  143.4150  139.2720  155.4250 O   0  0  0  0  0  0  0  0  0  0  0  0
  144.2770  139.5720  155.2110 H   0  0  0  0  0  0  0  0  0  0  0  0
  1  5  1  0  0  0  0
  2  4  1  0  0  0  0
  2  1  1  0  0  0  0
  3  2  2  0  0  0  0
  4  6  1  0  0  0  0
  7  8  1  0  0  0  0
  7  4  1  0  0  0  0
  9  8  2  0  0  0  0
 10  9  1  0  0  0  0
 11 10  1  0  0  0  0
 12 10  2  0  0  0  0
 12 13  1  0  0  0  0
 13  7  2  0  0  0  0
 14  1  1  0  0  0  0
 14 17  1  0  0  0  0
 15 22  1  0  0  0  0
 16 15  2  0  0  0  0
 17 16  1  0  0  0  0
 18 17  2  0  0  0  0
 18 19  1  0  0  0  0
 19 20  2  0  0  0  0
 20 15  1  0  0  0  0
 20 23  1  0  0  0  0
 22 21  1  0  0  0  0
 24 23  1  0  0  0  0
M  END
>  <MODEL>
9

>  <REMARK>
 VINA RESULT:    -6.339      6.496      9.988
 INTER + INTRA:          -8.389
 INTER:                  -8.007
 INTRA:                  -0.382
 UNBOUND:                -0.382
  Name = CHEMBL4538916
  6 active torsions:
  status: ('A' for Active; 'I' for Inactive)
    1  A    between atoms: C_1  and  O_2
    2  A    between atoms: O_2  and  C_3
    3  A    between atoms: C_5  and  C_6
    4  A    between atoms: C_6  and  N_7
    5  A    between atoms: N_10  and  C_11
    6  A    between atoms: C_20  and  O_21
                            x       y       z     vdW  Elec       q    Type
                         _______ _______ _______ _____ _____    ______ ____

>  <TORSDO>
F 5

>  <SCORE>
-6.339

>  <RMSD_LB>
6.496

>  <RMSD_UB>
9.988

$$$$
