CHEMBL4638820
 OpenBabel10172500513D

 19 19  0  0  0  0  0  0  0  0999 V2000
  134.5030  133.9440  150.1760 C   0  0  0  0  0  0  0  0  0  0  0  0
  133.1710  133.5830  149.9370 C   0  0  0  0  0  3  0  0  0  0  0  0
  132.7410  133.3150  148.6320 C   0  0  0  0  0  3  0  0  0  0  0  0
  133.6300  133.4130  147.5600 C   0  0  0  0  0  0  0  0  0  0  0  0
  134.9650  133.7740  147.7780 C   0  0  0  0  0  0  0  0  0  0  0  0
  135.3810  134.0370  149.0900 C   0  0  0  0  0  3  0  0  0  0  0  0
  134.2410  133.9970  152.6510 C   0  0  0  0  0  3  0  0  0  0  0  0
  134.9400  134.2880  151.5370 C   0  0  0  0  0  3  0  0  0  0  0  0
  134.7600  134.4130  153.9820 C   0  0  0  0  0  0  0  0  0  0  0  0
  134.2000  134.0520  155.0200 O   0  0  0  0  0  0  0  0  0  0  0  0
  135.9880  135.3040  153.9920 C   0  0  0  0  0  2  0  0  0  0  0  0
  135.9140  136.3330  155.1200 C   0  0  0  0  0  2  0  0  0  0  0  0
  137.2970  136.8180  155.5530 C   0  0  0  0  0  2  0  0  0  0  0  0
  136.8200  135.6410  157.7270 C   0  0  0  0  0  1  0  0  0  0  0  0
  137.8640  135.9300  156.6630 C   0  0  0  0  0  2  0  0  0  0  0  0
  133.1530  133.1600  146.3060 O   0  0  0  0  0  0  0  0  0  0  0  0
  132.5070  132.4940  146.1760 H   0  0  0  0  0  0  0  0  0  0  0  0
  135.9610  133.9170  146.8490 O   0  0  0  0  0  0  0  0  0  0  0  0
  136.0420  135.1530  146.1550 C   0  0  0  0  0  1  0  0  0  0  0  0
  1  8  1  0  0  0  0
  2  1  1  0  0  0  0
  3  2  2  0  0  0  0
  4  5  2  0  0  0  0
  4  3  1  0  0  0  0
  5  6  1  0  0  0  0
  6  1  2  0  0  0  0
  7  9  1  0  0  0  0
  8  7  2  0  0  0  0
  9 11  1  0  0  0  0
  9 10  2  0  0  0  0
 11 12  1  0  0  0  0
 12 13  1  0  0  0  0
 13 15  1  0  0  0  0
 15 14  1  0  0  0  0
 16  4  1  0  0  0  0
 17 16  1  0  0  0  0
 18  5  1  0  0  0  0
 19 18  1  0  0  0  0
M  END
>  <MODEL>
1

>  <REMARK>
 VINA RESULT:    -5.982      0.000      0.000
 INTER + INTRA:          -9.126
 INTER:                  -8.622
 INTRA:                  -0.503
 UNBOUND:                -0.520
  Name = CHEMBL4638820
  10 active torsions:
  status: ('A' for Active; 'I' for Inactive)
    1  A    between atoms: C_1  and  C_2
    2  A    between atoms: C_2  and  C_3
    3  A    between atoms: C_3  and  C_4
    4  A    between atoms: C_4  and  C_5
    5  A    between atoms: C_5  and  C_6
    6  A    between atoms: C_6  and  C_8
    7  A    between atoms: C_9  and  C_10
    8  A    between atoms: C_13  and  O_14
    9  A    between atoms: C_15  and  O_16
   10  A    between atoms: O_16  and  C_17
                            x       y       z     vdW  Elec       q    Type
                         _______ _______ _______ _____ _____    ______ ____

>  <TORSDO>
F 8

>  <SCORE>
-5.982

>  <RMSD_LB>
0.000

>  <RMSD_UB>
0.000

$$$$
CHEMBL4638820
 OpenBabel10172500513D

 19 19  0  0  0  0  0  0  0  0999 V2000
  137.3240  136.5710  155.2120 C   0  0  0  0  0  0  0  0  0  0  0  0
  138.0630  136.4720  156.3970 C   0  0  0  0  0  3  0  0  0  0  0  0
  139.2280  137.2290  156.5620 C   0  0  0  0  0  3  0  0  0  0  0  0
  139.6700  138.0790  155.5470 C   0  0  0  0  0  0  0  0  0  0  0  0
  138.9460  138.1920  154.3530 C   0  0  0  0  0  0  0  0  0  0  0  0
  137.7800  137.4300  154.2040 C   0  0  0  0  0  3  0  0  0  0  0  0
  135.7380  135.2570  153.8150 C   0  0  0  0  0  3  0  0  0  0  0  0
  136.1350  135.7300  155.0120 C   0  0  0  0  0  3  0  0  0  0  0  0
  134.5030  134.4330  153.7160 C   0  0  0  0  0  0  0  0  0  0  0  0
  134.2960  133.5050  154.5020 O   0  0  0  0  0  0  0  0  0  0  0  0
  133.5330  134.7810  152.6020 C   0  0  0  0  0  2  0  0  0  0  0  0
  134.2770  135.1770  151.3260 C   0  0  0  0  0  2  0  0  0  0  0  0
  134.8290  133.9640  150.5780 C   0  0  0  0  0  2  0  0  0  0  0  0
  132.8580  133.6030  149.0530 C   0  0  0  0  0  1  0  0  0  0  0  0
  133.7010  133.0140  150.1710 C   0  0  0  0  0  2  0  0  0  0  0  0
  140.8230  138.7790  155.7520 O   0  0  0  0  0  0  0  0  0  0  0  0
  141.6160  138.5090  155.3320 H   0  0  0  0  0  0  0  0  0  0  0  0
  139.2330  138.9700  153.2640 O   0  0  0  0  0  0  0  0  0  0  0  0
  139.5980  138.3090  152.0600 C   0  0  0  0  0  1  0  0  0  0  0  0
  1  2  1  0  0  0  0
  2  3  2  0  0  0  0
  4 16  1  0  0  0  0
  4  3  1  0  0  0  0
  5  4  2  0  0  0  0
  6  5  1  0  0  0  0
  6  1  2  0  0  0  0
  7  8  2  0  0  0  0
  8  1  1  0  0  0  0
  9  7  1  0  0  0  0
  9 10  2  0  0  0  0
 11  9  1  0  0  0  0
 12 11  1  0  0  0  0
 13 12  1  0  0  0  0
 14 15  1  0  0  0  0
 15 13  1  0  0  0  0
 17 16  1  0  0  0  0
 18  5  1  0  0  0  0
 19 18  1  0  0  0  0
M  END
>  <MODEL>
2

>  <REMARK>
 VINA RESULT:    -5.958      3.089      7.613
 INTER + INTRA:          -9.091
 INTER:                  -8.515
 INTRA:                  -0.576
 UNBOUND:                -0.520
  Name = CHEMBL4638820
  10 active torsions:
  status: ('A' for Active; 'I' for Inactive)
    1  A    between atoms: C_1  and  C_2
    2  A    between atoms: C_2  and  C_3
    3  A    between atoms: C_3  and  C_4
    4  A    between atoms: C_4  and  C_5
    5  A    between atoms: C_5  and  C_6
    6  A    between atoms: C_6  and  C_8
    7  A    between atoms: C_9  and  C_10
    8  A    between atoms: C_13  and  O_14
    9  A    between atoms: C_15  and  O_16
   10  A    between atoms: O_16  and  C_17
                            x       y       z     vdW  Elec       q    Type
                         _______ _______ _______ _____ _____    ______ ____

>  <TORSDO>
F 8

>  <SCORE>
-5.958

>  <RMSD_LB>
3.089

>  <RMSD_UB>
7.613

$$$$
CHEMBL4638820
 OpenBabel10172500513D

 19 19  0  0  0  0  0  0  0  0999 V2000
  141.8720  137.7820  152.7710 C   0  0  0  0  0  0  0  0  0  0  0  0
  141.1210  137.4510  151.6370 C   0  0  0  0  0  3  0  0  0  0  0  0
  139.7240  137.5240  151.6760 C   0  0  0  0  0  3  0  0  0  0  0  0
  139.0680  137.9160  152.8440 C   0  0  0  0  0  0  0  0  0  0  0  0
  139.8000  138.2500  153.9890 C   0  0  0  0  0  0  0  0  0  0  0  0
  141.1980  138.1750  153.9340 C   0  0  0  0  0  3  0  0  0  0  0  0
  144.0880  137.4260  153.8480 C   0  0  0  0  0  3  0  0  0  0  0  0
  143.3360  137.6450  152.7520 C   0  0  0  0  0  3  0  0  0  0  0  0
  145.5680  137.3280  153.7240 C   0  0  0  0  0  0  0  0  0  0  0  0
  146.1550  136.2750  153.9820 O   0  0  0  0  0  0  0  0  0  0  0  0
  146.3050  138.5800  153.2860 C   0  0  0  0  0  2  0  0  0  0  0  0
  146.3510  139.6150  154.4100 C   0  0  0  0  0  2  0  0  0  0  0  0
  147.2460  140.8040  154.0640 C   0  0  0  0  0  2  0  0  0  0  0  0
  146.0970  142.2860  152.3840 C   0  0  0  0  0  1  0  0  0  0  0  0
  146.4150  142.0710  153.8540 C   0  0  0  0  0  2  0  0  0  0  0  0
  137.7040  137.9510  152.8330 O   0  0  0  0  0  0  0  0  0  0  0  0
  137.2550  138.5590  152.2790 H   0  0  0  0  0  0  0  0  0  0  0  0
  139.3220  138.6510  155.2080 O   0  0  0  0  0  0  0  0  0  0  0  0
  139.4990  137.7690  156.3070 C   0  0  0  0  0  1  0  0  0  0  0  0
  1  6  1  0  0  0  0
  2  3  1  0  0  0  0
  2  1  2  0  0  0  0
  3  4  2  0  0  0  0
  4  5  1  0  0  0  0
  5 18  1  0  0  0  0
  6  5  2  0  0  0  0
  8  1  1  0  0  0  0
  8  7  2  0  0  0  0
  9  7  1  0  0  0  0
  9 10  2  0  0  0  0
 11  9  1  0  0  0  0
 11 12  1  0  0  0  0
 13 12  1  0  0  0  0
 14 15  1  0  0  0  0
 15 13  1  0  0  0  0
 16  4  1  0  0  0  0
 17 16  1  0  0  0  0
 18 19  1  0  0  0  0
M  END
>  <MODEL>
3

>  <REMARK>
 VINA RESULT:    -5.903      7.639     10.216
 INTER + INTRA:          -9.012
 INTER:                  -8.471
 INTRA:                  -0.541
 UNBOUND:                -0.520
  Name = CHEMBL4638820
  10 active torsions:
  status: ('A' for Active; 'I' for Inactive)
    1  A    between atoms: C_1  and  C_2
    2  A    between atoms: C_2  and  C_3
    3  A    between atoms: C_3  and  C_4
    4  A    between atoms: C_4  and  C_5
    5  A    between atoms: C_5  and  C_6
    6  A    between atoms: C_6  and  C_8
    7  A    between atoms: C_9  and  C_10
    8  A    between atoms: C_13  and  O_14
    9  A    between atoms: C_15  and  O_16
   10  A    between atoms: O_16  and  C_17
                            x       y       z     vdW  Elec       q    Type
                         _______ _______ _______ _____ _____    ______ ____

>  <TORSDO>
F 8

>  <SCORE>
-5.903

>  <RMSD_LB>
7.639

>  <RMSD_UB>
10.216

$$$$
CHEMBL4638820
 OpenBabel10172500513D

 19 19  0  0  0  0  0  0  0  0999 V2000
  136.4190  136.1540  155.0340 C   0  0  0  0  0  0  0  0  0  0  0  0
  136.0680  135.7990  156.3420 C   0  0  0  0  0  3  0  0  0  0  0  0
  136.6260  136.4830  157.4280 C   0  0  0  0  0  3  0  0  0  0  0  0
  137.5400  137.5170  157.2190 C   0  0  0  0  0  0  0  0  0  0  0  0
  137.9060  137.8870  155.9190 C   0  0  0  0  0  0  0  0  0  0  0  0
  137.3370  137.1930  154.8420 C   0  0  0  0  0  3  0  0  0  0  0  0
  134.7910  135.7540  153.1950 C   0  0  0  0  0  3  0  0  0  0  0  0
  135.8840  135.3940  153.8960 C   0  0  0  0  0  3  0  0  0  0  0  0
  134.3160  134.8990  152.0720 C   0  0  0  0  0  0  0  0  0  0  0  0
  133.1200  134.6220  151.9520 O   0  0  0  0  0  0  0  0  0  0  0  0
  135.3680  134.3840  151.1080 C   0  0  0  0  0  2  0  0  0  0  0  0
  135.8450  135.4910  150.1680 C   0  0  0  0  0  2  0  0  0  0  0  0
  137.3190  135.8340  150.3780 C   0  0  0  0  0  2  0  0  0  0  0  0
  138.1940  138.1890  150.2040 C   0  0  0  0  0  1  0  0  0  0  0  0
  137.4700  137.1830  151.0840 C   0  0  0  0  0  2  0  0  0  0  0  0
  138.0680  138.1380  158.3130 O   0  0  0  0  0  0  0  0  0  0  0  0
  138.0030  137.7370  159.1570 H   0  0  0  0  0  0  0  0  0  0  0  0
  138.7800  138.8680  155.5360 O   0  0  0  0  0  0  0  0  0  0  0  0
  139.1630  138.9120  154.1690 C   0  0  0  0  0  1  0  0  0  0  0  0
  1  2  1  0  0  0  0
  2  3  2  0  0  0  0
  4  3  1  0  0  0  0
  4 16  1  0  0  0  0
  5  4  2  0  0  0  0
  6  1  2  0  0  0  0
  6  5  1  0  0  0  0
  7  8  2  0  0  0  0
  8  1  1  0  0  0  0
  9  7  1  0  0  0  0
 10  9  2  0  0  0  0
 11  9  1  0  0  0  0
 12 13  1  0  0  0  0
 12 11  1  0  0  0  0
 13 15  1  0  0  0  0
 14 15  1  0  0  0  0
 16 17  1  0  0  0  0
 18  5  1  0  0  0  0
 19 18  1  0  0  0  0
M  END
>  <MODEL>
4

>  <REMARK>
 VINA RESULT:    -5.824      3.093      7.561
 INTER + INTRA:          -8.898
 INTER:                  -7.888
 INTRA:                  -1.011
 UNBOUND:                -0.520
  Name = CHEMBL4638820
  10 active torsions:
  status: ('A' for Active; 'I' for Inactive)
    1  A    between atoms: C_1  and  C_2
    2  A    between atoms: C_2  and  C_3
    3  A    between atoms: C_3  and  C_4
    4  A    between atoms: C_4  and  C_5
    5  A    between atoms: C_5  and  C_6
    6  A    between atoms: C_6  and  C_8
    7  A    between atoms: C_9  and  C_10
    8  A    between atoms: C_13  and  O_14
    9  A    between atoms: C_15  and  O_16
   10  A    between atoms: O_16  and  C_17
                            x       y       z     vdW  Elec       q    Type
                         _______ _______ _______ _____ _____    ______ ____

>  <TORSDO>
F 8

>  <SCORE>
-5.824

>  <RMSD_LB>
3.093

>  <RMSD_UB>
7.561

$$$$
CHEMBL4638820
 OpenBabel10172500513D

 19 19  0  0  0  0  0  0  0  0999 V2000
  145.1670  140.8080  152.0120 C   0  0  0  0  0  0  0  0  0  0  0  0
  145.7680  142.0720  152.0340 C   0  0  0  0  0  3  0  0  0  0  0  0
  146.7250  142.3760  153.0090 C   0  0  0  0  0  3  0  0  0  0  0  0
  147.0810  141.4300  153.9710 C   0  0  0  0  0  0  0  0  0  0  0  0
  146.4900  140.1600  153.9680 C   0  0  0  0  0  0  0  0  0  0  0  0
  145.5360  139.8700  152.9840 C   0  0  0  0  0  3  0  0  0  0  0  0
  143.0190  139.7740  151.2960 C   0  0  0  0  0  3  0  0  0  0  0  0
  144.1160  140.5090  151.0290 C   0  0  0  0  0  3  0  0  0  0  0  0
  142.0250  139.5060  150.2210 C   0  0  0  0  0  0  0  0  0  0  0  0
  141.3850  140.4280  149.7090 O   0  0  0  0  0  0  0  0  0  0  0  0
  141.8340  138.0590  149.8070 C   0  0  0  0  0  2  0  0  0  0  0  0
  142.4750  137.1070  150.8180 C   0  0  0  0  0  2  0  0  0  0  0  0
  143.5570  136.2340  150.1840 C   0  0  0  0  0  2  0  0  0  0  0  0
  143.0140  134.3240  148.6350 C   0  0  0  0  0  1  0  0  0  0  0  0
  143.1680  135.8300  148.7600 C   0  0  0  0  0  2  0  0  0  0  0  0
  148.0040  141.7850  154.9110 O   0  0  0  0  0  0  0  0  0  0  0  0
  148.6390  142.4470  154.7180 H   0  0  0  0  0  0  0  0  0  0  0  0
  146.7200  139.1210  154.8300 O   0  0  0  0  0  0  0  0  0  0  0  0
  146.0650  137.8890  154.5640 C   0  0  0  0  0  1  0  0  0  0  0  0
  1  2  2  0  0  0  0
  1  6  1  0  0  0  0
  2  3  1  0  0  0  0
  3  4  2  0  0  0  0
  4 16  1  0  0  0  0
  5  4  1  0  0  0  0
  5 18  1  0  0  0  0
  6  5  2  0  0  0  0
  8  7  2  0  0  0  0
  8  1  1  0  0  0  0
  9  7  1  0  0  0  0
 10  9  2  0  0  0  0
 11  9  1  0  0  0  0
 11 12  1  0  0  0  0
 13 12  1  0  0  0  0
 14 15  1  0  0  0  0
 15 13  1  0  0  0  0
 17 16  1  0  0  0  0
 19 18  1  0  0  0  0
M  END
>  <MODEL>
5

>  <REMARK>
 VINA RESULT:    -5.689      9.726     12.808
 INTER + INTRA:          -8.703
 INTER:                  -8.012
 INTRA:                  -0.691
 UNBOUND:                -0.520
  Name = CHEMBL4638820
  10 active torsions:
  status: ('A' for Active; 'I' for Inactive)
    1  A    between atoms: C_1  and  C_2
    2  A    between atoms: C_2  and  C_3
    3  A    between atoms: C_3  and  C_4
    4  A    between atoms: C_4  and  C_5
    5  A    between atoms: C_5  and  C_6
    6  A    between atoms: C_6  and  C_8
    7  A    between atoms: C_9  and  C_10
    8  A    between atoms: C_13  and  O_14
    9  A    between atoms: C_15  and  O_16
   10  A    between atoms: O_16  and  C_17
                            x       y       z     vdW  Elec       q    Type
                         _______ _______ _______ _____ _____    ______ ____

>  <TORSDO>
F 8

>  <SCORE>
-5.689

>  <RMSD_LB>
9.726

>  <RMSD_UB>
12.808

$$$$
CHEMBL4638820
 OpenBabel10172500513D

 19 19  0  0  0  0  0  0  0  0999 V2000
  140.8300  138.1060  153.6920 C   0  0  0  0  0  0  0  0  0  0  0  0
  142.1620  138.0060  154.1100 C   0  0  0  0  0  3  0  0  0  0  0  0
  143.1520  137.6020  153.2080 C   0  0  0  0  0  3  0  0  0  0  0  0
  142.8210  137.2860  151.8890 C   0  0  0  0  0  0  0  0  0  0  0  0
  141.4940  137.3780  151.4510 C   0  0  0  0  0  0  0  0  0  0  0  0
  140.5150  137.7860  152.3660 C   0  0  0  0  0  3  0  0  0  0  0  0
  138.6450  137.7660  154.8340 C   0  0  0  0  0  3  0  0  0  0  0  0
  139.7800  138.4680  154.6550 C   0  0  0  0  0  3  0  0  0  0  0  0
  137.6310  138.2330  155.8190 C   0  0  0  0  0  0  0  0  0  0  0  0
  136.8630  139.1580  155.5450 O   0  0  0  0  0  0  0  0  0  0  0  0
  137.6050  137.5300  157.1630 C   0  0  0  0  0  2  0  0  0  0  0  0
  137.5380  136.0120  156.9910 C   0  0  0  0  0  2  0  0  0  0  0  0
  136.8270  135.3290  158.1580 C   0  0  0  0  0  2  0  0  0  0  0  0
  135.0630  136.1020  159.7800 C   0  0  0  0  0  1  0  0  0  0  0  0
  135.4030  135.8640  158.3190 C   0  0  0  0  0  2  0  0  0  0  0  0
  143.8220  136.8780  151.0550 O   0  0  0  0  0  0  0  0  0  0  0  0
  144.3530  137.5120  150.6160 H   0  0  0  0  0  0  0  0  0  0  0  0
  140.9980  137.1080  150.2030 O   0  0  0  0  0  0  0  0  0  0  0  0
  139.5890  136.9830  150.0680 C   0  0  0  0  0  1  0  0  0  0  0  0
  1  2  1  0  0  0  0
  1  8  1  0  0  0  0
  3  2  2  0  0  0  0
  4  3  1  0  0  0  0
  5  4  2  0  0  0  0
  5  6  1  0  0  0  0
  6  1  2  0  0  0  0
  7  9  1  0  0  0  0
  8  7  2  0  0  0  0
  9 11  1  0  0  0  0
 10  9  2  0  0  0  0
 12 11  1  0  0  0  0
 12 13  1  0  0  0  0
 13 15  1  0  0  0  0
 15 14  1  0  0  0  0
 16  4  1  0  0  0  0
 17 16  1  0  0  0  0
 18  5  1  0  0  0  0
 19 18  1  0  0  0  0
M  END
>  <MODEL>
6

>  <REMARK>
 VINA RESULT:    -5.597      5.666      7.454
 INTER + INTRA:          -8.572
 INTER:                  -8.074
 INTRA:                  -0.498
 UNBOUND:                -0.520
  Name = CHEMBL4638820
  10 active torsions:
  status: ('A' for Active; 'I' for Inactive)
    1  A    between atoms: C_1  and  C_2
    2  A    between atoms: C_2  and  C_3
    3  A    between atoms: C_3  and  C_4
    4  A    between atoms: C_4  and  C_5
    5  A    between atoms: C_5  and  C_6
    6  A    between atoms: C_6  and  C_8
    7  A    between atoms: C_9  and  C_10
    8  A    between atoms: C_13  and  O_14
    9  A    between atoms: C_15  and  O_16
   10  A    between atoms: O_16  and  C_17
                            x       y       z     vdW  Elec       q    Type
                         _______ _______ _______ _____ _____    ______ ____

>  <TORSDO>
F 8

>  <SCORE>
-5.597

>  <RMSD_LB>
5.666

>  <RMSD_UB>
7.454

$$$$
CHEMBL4638820
 OpenBabel10172500513D

 19 19  0  0  0  0  0  0  0  0999 V2000
  146.5960  141.4900  151.0100 C   0  0  0  0  0  0  0  0  0  0  0  0
  147.4360  142.4290  150.4000 C   0  0  0  0  0  3  0  0  0  0  0  0
  148.6960  142.7000  150.9450 C   0  0  0  0  0  3  0  0  0  0  0  0
  149.1230  142.0470  152.1020 C   0  0  0  0  0  0  0  0  0  0  0  0
  148.2970  141.1060  152.7290 C   0  0  0  0  0  0  0  0  0  0  0  0
  147.0390  140.8430  152.1700 C   0  0  0  0  0  3  0  0  0  0  0  0
  144.6440  140.0460  150.4610 C   0  0  0  0  0  3  0  0  0  0  0  0
  145.2470  141.2510  150.4770 C   0  0  0  0  0  3  0  0  0  0  0  0
  143.2840  139.9050  149.8740 C   0  0  0  0  0  0  0  0  0  0  0  0
  143.1090  139.9950  148.6570 O   0  0  0  0  0  0  0  0  0  0  0  0
  142.1400  139.6650  150.8420 C   0  0  0  0  0  2  0  0  0  0  0  0
  141.4550  138.3260  150.5650 C   0  0  0  0  0  2  0  0  0  0  0  0
  141.4990  137.3930  151.7750 C   0  0  0  0  0  2  0  0  0  0  0  0
  142.7580  137.7530  153.9260 C   0  0  0  0  0  1  0  0  0  0  0  0
  142.8730  137.4330  152.4460 C   0  0  0  0  0  2  0  0  0  0  0  0
  150.3530  142.3640  152.6020 O   0  0  0  0  0  0  0  0  0  0  0  0
  150.4920  143.1930  153.0140 H   0  0  0  0  0  0  0  0  0  0  0  0
  148.5550  140.3800  153.8610 O   0  0  0  0  0  0  0  0  0  0  0  0
  147.4490  139.7960  154.5350 C   0  0  0  0  0  1  0  0  0  0  0  0
  1  6  1  0  0  0  0
  2  3  1  0  0  0  0
  2  1  2  0  0  0  0
  3  4  2  0  0  0  0
  4 16  1  0  0  0  0
  4  5  1  0  0  0  0
  5 18  1  0  0  0  0
  6  5  2  0  0  0  0
  7  8  2  0  0  0  0
  8  1  1  0  0  0  0
  9  7  1  0  0  0  0
  9 11  1  0  0  0  0
 10  9  2  0  0  0  0
 12 11  1  0  0  0  0
 12 13  1  0  0  0  0
 13 15  1  0  0  0  0
 15 14  1  0  0  0  0
 16 17  1  0  0  0  0
 18 19  1  0  0  0  0
M  END
>  <MODEL>
7

>  <REMARK>
 VINA RESULT:    -5.554     10.974     13.627
 INTER + INTRA:          -8.509
 INTER:                  -7.936
 INTRA:                  -0.573
 UNBOUND:                -0.520
  Name = CHEMBL4638820
  10 active torsions:
  status: ('A' for Active; 'I' for Inactive)
    1  A    between atoms: C_1  and  C_2
    2  A    between atoms: C_2  and  C_3
    3  A    between atoms: C_3  and  C_4
    4  A    between atoms: C_4  and  C_5
    5  A    between atoms: C_5  and  C_6
    6  A    between atoms: C_6  and  C_8
    7  A    between atoms: C_9  and  C_10
    8  A    between atoms: C_13  and  O_14
    9  A    between atoms: C_15  and  O_16
   10  A    between atoms: O_16  and  C_17
                            x       y       z     vdW  Elec       q    Type
                         _______ _______ _______ _____ _____    ______ ____

>  <TORSDO>
F 8

>  <SCORE>
-5.554

>  <RMSD_LB>
10.974

>  <RMSD_UB>
13.627

$$$$
CHEMBL4638820
 OpenBabel10172500513D

 19 19  0  0  0  0  0  0  0  0999 V2000
  134.2210  136.0790  150.3730 C   0  0  0  0  0  0  0  0  0  0  0  0
  132.8750  136.4060  150.1700 C   0  0  0  0  0  3  0  0  0  0  0  0
  132.4670  136.9680  148.9550 C   0  0  0  0  0  3  0  0  0  0  0  0
  133.3940  137.2160  147.9420 C   0  0  0  0  0  0  0  0  0  0  0  0
  134.7450  136.8970  148.1250 C   0  0  0  0  0  0  0  0  0  0  0  0
  135.1380  136.3320  149.3460 C   0  0  0  0  0  3  0  0  0  0  0  0
  134.0740  135.8420  152.8460 C   0  0  0  0  0  3  0  0  0  0  0  0
  134.6620  135.5480  151.6710 C   0  0  0  0  0  3  0  0  0  0  0  0
  134.6150  135.2710  154.1100 C   0  0  0  0  0  0  0  0  0  0  0  0
  133.8800  134.6700  154.8980 O   0  0  0  0  0  0  0  0  0  0  0  0
  136.0940  135.4800  154.3800 C   0  0  0  0  0  2  0  0  0  0  0  0
  136.3110  136.4490  155.5420 C   0  0  0  0  0  2  0  0  0  0  0  0
  137.3460  135.9320  156.5410 C   0  0  0  0  0  2  0  0  0  0  0  0
  139.4160  137.3620  156.4540 C   0  0  0  0  0  1  0  0  0  0  0  0
  138.1110  137.0900  157.1830 C   0  0  0  0  0  2  0  0  0  0  0  0
  132.9450  137.7830  146.7850 O   0  0  0  0  0  0  0  0  0  0  0  0
  132.9500  137.2900  145.9880 H   0  0  0  0  0  0  0  0  0  0  0  0
  135.7800  137.0710  147.2450 O   0  0  0  0  0  0  0  0  0  0  0  0
  137.0450  136.5320  147.6020 C   0  0  0  0  0  1  0  0  0  0  0  0
  1  8  1  0  0  0  0
  2  1  1  0  0  0  0
  3  2  2  0  0  0  0
  4  5  2  0  0  0  0
  4  3  1  0  0  0  0
  5  6  1  0  0  0  0
  6  1  2  0  0  0  0
  7  9  1  0  0  0  0
  8  7  2  0  0  0  0
  9 11  1  0  0  0  0
  9 10  2  0  0  0  0
 11 12  1  0  0  0  0
 12 13  1  0  0  0  0
 13 15  1  0  0  0  0
 14 15  1  0  0  0  0
 16  4  1  0  0  0  0
 17 16  1  0  0  0  0
 18 19  1  0  0  0  0
 18  5  1  0  0  0  0
M  END
>  <MODEL>
8

>  <REMARK>
 VINA RESULT:    -5.442      2.407      2.525
 INTER + INTRA:          -8.348
 INTER:                  -7.899
 INTRA:                  -0.449
 UNBOUND:                -0.520
  Name = CHEMBL4638820
  10 active torsions:
  status: ('A' for Active; 'I' for Inactive)
    1  A    between atoms: C_1  and  C_2
    2  A    between atoms: C_2  and  C_3
    3  A    between atoms: C_3  and  C_4
    4  A    between atoms: C_4  and  C_5
    5  A    between atoms: C_5  and  C_6
    6  A    between atoms: C_6  and  C_8
    7  A    between atoms: C_9  and  C_10
    8  A    between atoms: C_13  and  O_14
    9  A    between atoms: C_15  and  O_16
   10  A    between atoms: O_16  and  C_17
                            x       y       z     vdW  Elec       q    Type
                         _______ _______ _______ _____ _____    ______ ____

>  <TORSDO>
F 8

>  <SCORE>
-5.442

>  <RMSD_LB>
2.407

>  <RMSD_UB>
2.525

$$$$
CHEMBL4638820
 OpenBabel10172500513D

 19 19  0  0  0  0  0  0  0  0999 V2000
  137.1100  136.7460  153.3200 C   0  0  0  0  0  0  0  0  0  0  0  0
  137.2480  137.0930  154.6690 C   0  0  0  0  0  3  0  0  0  0  0  0
  138.1750  138.0680  155.0510 C   0  0  0  0  0  3  0  0  0  0  0  0
  138.9760  138.6960  154.0960 C   0  0  0  0  0  0  0  0  0  0  0  0
  138.8550  138.3630  152.7410 C   0  0  0  0  0  0  0  0  0  0  0  0
  137.9200  137.3860  152.3740 C   0  0  0  0  0  3  0  0  0  0  0  0
  135.0130  135.8890  152.2880 C   0  0  0  0  0  3  0  0  0  0  0  0
  136.1820  135.6770  152.9240 C   0  0  0  0  0  3  0  0  0  0  0  0
  134.1310  134.7380  151.9540 C   0  0  0  0  0  0  0  0  0  0  0  0
  133.3050  134.3180  152.7670 O   0  0  0  0  0  0  0  0  0  0  0  0
  134.3140  134.1090  150.5850 C   0  0  0  0  0  2  0  0  0  0  0  0
  133.2330  134.5820  149.6120 C   0  0  0  0  0  2  0  0  0  0  0  0
  133.7820  135.5500  148.5640 C   0  0  0  0  0  2  0  0  0  0  0  0
  132.4660  137.1090  147.0900 C   0  0  0  0  0  1  0  0  0  0  0  0
  132.9400  136.8250  148.5050 C   0  0  0  0  0  2  0  0  0  0  0  0
  139.8780  139.6260  154.5250 O   0  0  0  0  0  0  0  0  0  0  0  0
  140.1130  139.6680  155.4310 H   0  0  0  0  0  0  0  0  0  0  0  0
  139.5550  138.8750  151.6820 O   0  0  0  0  0  0  0  0  0  0  0  0
  138.8640  139.0340  150.4510 C   0  0  0  0  0  1  0  0  0  0  0  0
  1  2  1  0  0  0  0
  2  3  2  0  0  0  0
  4 16  1  0  0  0  0
  4  3  1  0  0  0  0
  5  4  2  0  0  0  0
  6  5  1  0  0  0  0
  6  1  2  0  0  0  0
  7  8  2  0  0  0  0
  8  1  1  0  0  0  0
  9  7  1  0  0  0  0
  9 10  2  0  0  0  0
 11  9  1  0  0  0  0
 12 11  1  0  0  0  0
 13 12  1  0  0  0  0
 14 15  1  0  0  0  0
 15 13  1  0  0  0  0
 16 17  1  0  0  0  0
 18  5  1  0  0  0  0
 19 18  1  0  0  0  0
M  END
>  <MODEL>
9

>  <REMARK>
 VINA RESULT:    -5.315      3.670      7.379
 INTER + INTRA:          -8.165
 INTER:                  -7.645
 INTRA:                  -0.520
 UNBOUND:                -0.520
  Name = CHEMBL4638820
  10 active torsions:
  status: ('A' for Active; 'I' for Inactive)
    1  A    between atoms: C_1  and  C_2
    2  A    between atoms: C_2  and  C_3
    3  A    between atoms: C_3  and  C_4
    4  A    between atoms: C_4  and  C_5
    5  A    between atoms: C_5  and  C_6
    6  A    between atoms: C_6  and  C_8
    7  A    between atoms: C_9  and  C_10
    8  A    between atoms: C_13  and  O_14
    9  A    between atoms: C_15  and  O_16
   10  A    between atoms: O_16  and  C_17
                            x       y       z     vdW  Elec       q    Type
                         _______ _______ _______ _____ _____    ______ ____

>  <TORSDO>
F 8

>  <SCORE>
-5.315

>  <RMSD_LB>
3.670

>  <RMSD_UB>
7.379

$$$$
