CHEMBL4592344
 OpenBabel10172500293D

 22 22  0  0  1  0  0  0  0  0999 V2000
  133.7870  133.9550  151.8180 C   0  0  0  0  0  3  0  0  0  0  0  0
  134.9340  134.1840  152.3650 N   0  0  0  0  0  0  0  0  0  0  0  0
  133.0800  134.6960  148.1760 C   0  0  0  0  0  0  0  0  0  0  0  0
  133.1840  134.8340  149.5610 C   0  0  0  0  0  3  0  0  0  0  0  0
  133.6920  133.7880  150.3480 C   0  0  0  0  0  0  0  0  0  0  0  0
  134.1010  132.5940  149.7500 C   0  0  0  0  0  3  0  0  0  0  0  0
  133.9980  132.4450  148.3640 C   0  0  0  0  0  3  0  0  0  0  0  0
  133.4900  133.4890  147.5880 C   0  0  0  0  0  0  0  0  0  0  0  0
  132.6200  137.0010  147.7850 C   0  0  0  0  0  1  0  0  0  0  0  0
  132.6010  135.6560  147.3250 O   0  0  0  0  0  0  0  0  0  0  0  0
  133.3830  133.3440  146.2300 O   0  0  0  0  0  0  0  0  0  0  0  0
  133.5510  134.0730  145.6660 H   0  0  0  0  0  0  0  0  0  0  0  0
  134.9910  134.3430  153.7110 N   0  0  0  0  0  0  0  0  0  0  0  0
  135.5310  135.5220  154.2090 C   0  0  0  0  0  0  0  0  0  0  0  0
  135.9440  136.4580  153.5200 O   0  0  0  0  0  0  0  0  0  0  0  0
  134.6590  133.6420  154.3170 H   0  0  0  0  0  0  0  0  0  0  0  0
  135.5810  135.5890  155.7200 C   0  0  0  0  0  2  0  0  0  0  0  0
  136.9230  136.1000  156.2280 C   0  0  0  0  0  2  0  0  0  0  0  0
  136.8700  137.5050  156.8430 C   0  0  1  0  0  3  0  0  0  0  0  0
  138.0630  137.8300  157.7290 C   0  0  0  0  0  1  0  0  0  0  0  0
  136.8190  138.4530  155.7770 O   0  0  0  0  0  0  0  0  0  0  0  0
  136.7310  139.3460  156.1430 H   0  0  0  0  0  0  0  0  0  0  0  0
  1  2  2  0  0  0  0
  2 13  1  0  0  0  0
  3  4  1  0  0  0  0
  4  5  2  0  0  0  0
  5  1  1  0  0  0  0
  6  5  1  0  0  0  0
  7  6  2  0  0  0  0
  8  3  2  0  0  0  0
  8  7  1  0  0  0  0
 10  9  1  0  0  0  0
 10  3  1  0  0  0  0
 11  8  1  0  0  0  0
 12 11  1  0  0  0  0
 13 14  1  0  0  0  0
 13 16  1  0  0  0  0
 14 17  1  0  0  0  0
 15 14  2  0  0  0  0
 17 18  1  0  0  0  0
 18 19  1  0  0  0  0
 19 20  1  6  0  0  0
 21 22  1  0  0  0  0
 21 19  1  0  0  0  0
M  END
>  <MODEL>
1

>  <REMARK>
 VINA RESULT:    -6.670      0.000      0.000
 INTER + INTRA:          -9.797
 INTER:                  -9.245
 INTRA:                  -0.552
 UNBOUND:                -0.398
  Name = CHEMBL4592344
  10 active torsions:
  status: ('A' for Active; 'I' for Inactive)
    1  A    between atoms: C_1  and  O_2
    2  A    between atoms: O_2  and  C_3
    3  A    between atoms: C_5  and  C_6
    4  A    between atoms: N_7  and  N_8
    5  A    between atoms: C_9  and  C_11
    6  A    between atoms: C_11  and  C_12
    7  A    between atoms: C_12  and  C_13
    8  A    between atoms: C_13  and  C_14
    9  A    between atoms: C_13  and  O_15
   10  A    between atoms: C_18  and  O_19
                            x       y       z     vdW  Elec       q    Type
                         _______ _______ _______ _____ _____    ______ ____

>  <TORSDO>
F 8

>  <SCORE>
-6.670

>  <RMSD_LB>
0.000

>  <RMSD_UB>
0.000

$$$$
CHEMBL4592344
 OpenBabel10172500293D

 22 22  0  0  1  0  0  0  0  0999 V2000
  134.9820  134.7650  154.3240 C   0  0  0  0  0  3  0  0  0  0  0  0
  134.0420  135.2320  153.5720 N   0  0  0  0  0  0  0  0  0  0  0  0
  136.9610  137.6640  155.7340 C   0  0  0  0  0  0  0  0  0  0  0  0
  136.3110  136.8140  154.8370 C   0  0  0  0  0  3  0  0  0  0  0  0
  135.6610  135.6560  155.2940 C   0  0  0  0  0  0  0  0  0  0  0  0
  135.6590  135.3420  156.6550 C   0  0  0  0  0  3  0  0  0  0  0  0
  136.3110  136.1860  157.5600 C   0  0  0  0  0  3  0  0  0  0  0  0
  136.9560  137.3350  157.0970 C   0  0  0  0  0  0  0  0  0  0  0  0
  138.5730  138.7270  154.3370 C   0  0  0  0  0  1  0  0  0  0  0  0
  137.6190  138.8150  155.3870 O   0  0  0  0  0  0  0  0  0  0  0  0
  137.6000  138.1600  157.9820 O   0  0  0  0  0  0  0  0  0  0  0  0
  137.2380  138.3080  158.8340 H   0  0  0  0  0  0  0  0  0  0  0  0
  133.4450  134.3970  152.6860 N   0  0  0  0  0  0  0  0  0  0  0  0
  133.5860  134.6690  151.3310 C   0  0  0  0  0  0  0  0  0  0  0  0
  134.2390  135.6040  150.8620 O   0  0  0  0  0  0  0  0  0  0  0  0
  132.9250  133.6200  152.9940 H   0  0  0  0  0  0  0  0  0  0  0  0
  132.8550  133.7010  150.4260 C   0  0  0  0  0  2  0  0  0  0  0  0
  132.7750  134.2050  148.9910 C   0  0  0  0  0  2  0  0  0  0  0  0
  133.6420  133.4200  147.9990 C   0  0  1  0  0  3  0  0  0  0  0  0
  134.3040  132.1910  148.6040 C   0  0  0  0  0  1  0  0  0  0  0  0
  132.8090  133.0060  146.9160 O   0  0  0  0  0  0  0  0  0  0  0  0
  132.9010  132.0490  146.7850 H   0  0  0  0  0  0  0  0  0  0  0  0
  1  5  1  0  0  0  0
  2  1  2  0  0  0  0
  3  8  1  0  0  0  0
  4  5  1  0  0  0  0
  4  3  2  0  0  0  0
  5  6  2  0  0  0  0
  6  7  1  0  0  0  0
  8  7  2  0  0  0  0
  8 11  1  0  0  0  0
  9 10  1  0  0  0  0
 10  3  1  0  0  0  0
 11 12  1  0  0  0  0
 13 16  1  0  0  0  0
 13  2  1  0  0  0  0
 14 13  1  0  0  0  0
 15 14  2  0  0  0  0
 17 14  1  0  0  0  0
 18 17  1  0  0  0  0
 19 20  1  1  0  0  0
 19 18  1  0  0  0  0
 21 19  1  0  0  0  0
 22 21  1  0  0  0  0
M  END
>  <MODEL>
2

>  <REMARK>
 VINA RESULT:    -6.457      1.519      8.282
 INTER + INTRA:          -9.497
 INTER:                  -9.102
 INTRA:                  -0.395
 UNBOUND:                -0.398
  Name = CHEMBL4592344
  10 active torsions:
  status: ('A' for Active; 'I' for Inactive)
    1  A    between atoms: C_1  and  O_2
    2  A    between atoms: O_2  and  C_3
    3  A    between atoms: C_5  and  C_6
    4  A    between atoms: N_7  and  N_8
    5  A    between atoms: C_9  and  C_11
    6  A    between atoms: C_11  and  C_12
    7  A    between atoms: C_12  and  C_13
    8  A    between atoms: C_13  and  C_14
    9  A    between atoms: C_13  and  O_15
   10  A    between atoms: C_18  and  O_19
                            x       y       z     vdW  Elec       q    Type
                         _______ _______ _______ _____ _____    ______ ____

>  <TORSDO>
F 8

>  <SCORE>
-6.457

>  <RMSD_LB>
1.519

>  <RMSD_UB>
8.282

$$$$
CHEMBL4592344
 OpenBabel10172500293D

 22 22  0  0  1  0  0  0  0  0999 V2000
  134.6240  134.5070  154.5630 C   0  0  0  0  0  3  0  0  0  0  0  0
  133.7900  135.1780  153.8410 N   0  0  0  0  0  0  0  0  0  0  0  0
  135.4680  135.3560  158.1510 C   0  0  0  0  0  0  0  0  0  0  0  0
  134.8820  134.7620  157.0320 C   0  0  0  0  0  3  0  0  0  0  0  0
  135.2640  135.1460  155.7370 C   0  0  0  0  0  0  0  0  0  0  0  0
  136.2380  136.1290  155.5540 C   0  0  0  0  0  3  0  0  0  0  0  0
  136.8290  136.7320  156.6690 C   0  0  0  0  0  3  0  0  0  0  0  0
  136.4430  136.3450  157.9540 C   0  0  0  0  0  0  0  0  0  0  0  0
  134.0150  135.6660  160.0150 C   0  0  0  0  0  1  0  0  0  0  0  0
  135.1650  135.0480  159.4510 O   0  0  0  0  0  0  0  0  0  0  0  0
  137.0170  136.9380  159.0490 O   0  0  0  0  0  0  0  0  0  0  0  0
  137.8100  136.5900  159.4080 H   0  0  0  0  0  0  0  0  0  0  0  0
  133.2280  134.5710  152.7660 N   0  0  0  0  0  0  0  0  0  0  0  0
  133.3210  135.2040  151.5330 C   0  0  0  0  0  0  0  0  0  0  0  0
  133.9030  136.2720  151.3280 O   0  0  0  0  0  0  0  0  0  0  0  0
  132.7650  133.7070  152.8570 H   0  0  0  0  0  0  0  0  0  0  0  0
  132.6330  134.4660  150.4050 C   0  0  0  0  0  2  0  0  0  0  0  0
  133.0850  134.9580  149.0370 C   0  0  0  0  0  2  0  0  0  0  0  0
  133.2470  133.8470  147.9900 C   0  0  1  0  0  3  0  0  0  0  0  0
  133.8870  132.5800  148.5380 C   0  0  0  0  0  1  0  0  0  0  0  0
  131.9520  133.5250  147.4840 O   0  0  0  0  0  0  0  0  0  0  0  0
  131.6620  132.6760  147.8530 H   0  0  0  0  0  0  0  0  0  0  0  0
  1  5  1  0  0  0  0
  2  1  2  0  0  0  0
  3 10  1  0  0  0  0
  4  3  2  0  0  0  0
  5  4  1  0  0  0  0
  6  5  2  0  0  0  0
  6  7  1  0  0  0  0
  7  8  2  0  0  0  0
  8  3  1  0  0  0  0
  8 11  1  0  0  0  0
 10  9  1  0  0  0  0
 11 12  1  0  0  0  0
 13 16  1  0  0  0  0
 13  2  1  0  0  0  0
 14 13  1  0  0  0  0
 15 14  2  0  0  0  0
 17 14  1  0  0  0  0
 18 17  1  0  0  0  0
 19 20  1  1  0  0  0
 19 18  1  0  0  0  0
 21 22  1  0  0  0  0
 21 19  1  0  0  0  0
M  END
>  <MODEL>
3

>  <REMARK>
 VINA RESULT:    -6.379      2.280      8.769
 INTER + INTRA:          -9.387
 INTER:                  -9.099
 INTRA:                  -0.289
 UNBOUND:                -0.398
  Name = CHEMBL4592344
  10 active torsions:
  status: ('A' for Active; 'I' for Inactive)
    1  A    between atoms: C_1  and  O_2
    2  A    between atoms: O_2  and  C_3
    3  A    between atoms: C_5  and  C_6
    4  A    between atoms: N_7  and  N_8
    5  A    between atoms: C_9  and  C_11
    6  A    between atoms: C_11  and  C_12
    7  A    between atoms: C_12  and  C_13
    8  A    between atoms: C_13  and  C_14
    9  A    between atoms: C_13  and  O_15
   10  A    between atoms: C_18  and  O_19
                            x       y       z     vdW  Elec       q    Type
                         _______ _______ _______ _____ _____    ______ ____

>  <TORSDO>
F 8

>  <SCORE>
-6.379

>  <RMSD_LB>
2.280

>  <RMSD_UB>
8.769

$$$$
CHEMBL4592344
 OpenBabel10172500293D

 22 22  0  0  1  0  0  0  0  0999 V2000
  134.5570  135.3210  151.1500 C   0  0  0  0  0  3  0  0  0  0  0  0
  133.8180  134.9060  152.1250 N   0  0  0  0  0  0  0  0  0  0  0  0
  133.6700  135.1640  147.4770 C   0  0  0  0  0  0  0  0  0  0  0  0
  134.2370  134.8680  148.7170 C   0  0  0  0  0  3  0  0  0  0  0  0
  133.9390  135.6500  149.8440 C   0  0  0  0  0  0  0  0  0  0  0  0
  133.0680  136.7360  149.7350 C   0  0  0  0  0  3  0  0  0  0  0  0
  132.4970  137.0430  148.4960 C   0  0  0  0  0  3  0  0  0  0  0  0
  132.8000  136.2600  147.3790 C   0  0  0  0  0  0  0  0  0  0  0  0
  134.9940  133.5580  146.3160 C   0  0  0  0  0  1  0  0  0  0  0  0
  133.8960  134.4620  146.3220 O   0  0  0  0  0  0  0  0  0  0  0  0
  132.2450  136.5620  146.1630 O   0  0  0  0  0  0  0  0  0  0  0  0
  131.3480  136.8270  146.1090 H   0  0  0  0  0  0  0  0  0  0  0  0
  134.4130  134.6020  153.3060 N   0  0  0  0  0  0  0  0  0  0  0  0
  134.4630  135.5850  154.2860 C   0  0  0  0  0  0  0  0  0  0  0  0
  133.9820  136.7160  154.1790 O   0  0  0  0  0  0  0  0  0  0  0  0
  134.7990  133.7100  153.4630 H   0  0  0  0  0  0  0  0  0  0  0  0
  135.1760  135.1600  155.5510 C   0  0  0  0  0  2  0  0  0  0  0  0
  136.5650  135.7760  155.6620 C   0  0  0  0  0  2  0  0  0  0  0  0
  136.6080  137.0960  156.4430 C   0  0  1  0  0  3  0  0  0  0  0  0
  137.8900  137.2940  157.2390 C   0  0  0  0  0  1  0  0  0  0  0  0
  136.4800  138.1670  155.5080 O   0  0  0  0  0  0  0  0  0  0  0  0
  137.3100  138.2690  155.0170 H   0  0  0  0  0  0  0  0  0  0  0  0
  1  2  2  0  0  0  0
  2 13  1  0  0  0  0
  3  4  1  0  0  0  0
  4  5  2  0  0  0  0
  5  1  1  0  0  0  0
  6  5  1  0  0  0  0
  7  6  2  0  0  0  0
  8  3  2  0  0  0  0
  8  7  1  0  0  0  0
  9 10  1  0  0  0  0
 10  3  1  0  0  0  0
 11  8  1  0  0  0  0
 12 11  1  0  0  0  0
 13 16  1  0  0  0  0
 13 14  1  0  0  0  0
 14 17  1  0  0  0  0
 15 14  2  0  0  0  0
 17 18  1  0  0  0  0
 18 19  1  0  0  0  0
 19 20  1  6  0  0  0
 21 19  1  0  0  0  0
 22 21  1  0  0  0  0
M  END
>  <MODEL>
4

>  <REMARK>
 VINA RESULT:    -6.136      1.415      2.349
 INTER + INTRA:          -9.045
 INTER:                  -8.563
 INTRA:                  -0.482
 UNBOUND:                -0.398
  Name = CHEMBL4592344
  10 active torsions:
  status: ('A' for Active; 'I' for Inactive)
    1  A    between atoms: C_1  and  O_2
    2  A    between atoms: O_2  and  C_3
    3  A    between atoms: C_5  and  C_6
    4  A    between atoms: N_7  and  N_8
    5  A    between atoms: C_9  and  C_11
    6  A    between atoms: C_11  and  C_12
    7  A    between atoms: C_12  and  C_13
    8  A    between atoms: C_13  and  C_14
    9  A    between atoms: C_13  and  O_15
   10  A    between atoms: C_18  and  O_19
                            x       y       z     vdW  Elec       q    Type
                         _______ _______ _______ _____ _____    ______ ____

>  <TORSDO>
F 8

>  <SCORE>
-6.136

>  <RMSD_LB>
1.415

>  <RMSD_UB>
2.349

$$$$
CHEMBL4592344
 OpenBabel10172500293D

 22 22  0  0  1  0  0  0  0  0999 V2000
  142.1430  139.1150  154.6590 C   0  0  0  0  0  3  0  0  0  0  0  0
  143.1590  139.3120  153.8870 N   0  0  0  0  0  0  0  0  0  0  0  0
  138.4600  138.3150  154.3360 C   0  0  0  0  0  0  0  0  0  0  0  0
  139.6860  138.7250  154.8620 C   0  0  0  0  0  3  0  0  0  0  0  0
  140.8500  138.6800  154.0780 C   0  0  0  0  0  0  0  0  0  0  0  0
  140.7930  138.2210  152.7610 C   0  0  0  0  0  3  0  0  0  0  0  0
  139.5690  137.8040  152.2270 C   0  0  0  0  0  3  0  0  0  0  0  0
  138.4160  137.8520  153.0130 C   0  0  0  0  0  0  0  0  0  0  0  0
  137.3170  138.0310  156.4080 C   0  0  0  0  0  1  0  0  0  0  0  0
  137.2710  138.3240  155.0180 O   0  0  0  0  0  0  0  0  0  0  0  0
  137.2170  137.4390  152.4930 O   0  0  0  0  0  0  0  0  0  0  0  0
  136.5350  138.0630  152.3360 H   0  0  0  0  0  0  0  0  0  0  0  0
  144.3270  139.7210  154.4440 N   0  0  0  0  0  0  0  0  0  0  0  0
  145.3660  140.0820  153.5970 C   0  0  0  0  0  0  0  0  0  0  0  0
  145.3050  140.0880  152.3650 O   0  0  0  0  0  0  0  0  0  0  0  0
  144.4350  139.7590  155.4220 H   0  0  0  0  0  0  0  0  0  0  0  0
  146.6350  140.4890  154.3130 C   0  0  0  0  0  2  0  0  0  0  0  0
  147.3310  141.6590  153.6300 C   0  0  0  0  0  2  0  0  0  0  0  0
  148.5370  141.2600  152.7700 C   0  0  1  0  0  3  0  0  0  0  0  0
  148.6150  142.0020  151.4440 C   0  0  0  0  0  1  0  0  0  0  0  0
  149.7220  141.5330  153.5170 O   0  0  0  0  0  0  0  0  0  0  0  0
  149.6780  142.4330  153.8770 H   0  0  0  0  0  0  0  0  0  0  0  0
  2 13  1  0  0  0  0
  2  1  2  0  0  0  0
  3  4  1  0  0  0  0
  3 10  1  0  0  0  0
  5  1  1  0  0  0  0
  5  4  2  0  0  0  0
  6  5  1  0  0  0  0
  7  6  2  0  0  0  0
  7  8  1  0  0  0  0
  8  3  2  0  0  0  0
 10  9  1  0  0  0  0
 11  8  1  0  0  0  0
 12 11  1  0  0  0  0
 13 16  1  0  0  0  0
 14 17  1  0  0  0  0
 14 13  1  0  0  0  0
 15 14  2  0  0  0  0
 18 17  1  0  0  0  0
 19 20  1  6  0  0  0
 19 21  1  0  0  0  0
 19 18  1  0  0  0  0
 21 22  1  0  0  0  0
M  END
>  <MODEL>
5

>  <REMARK>
 VINA RESULT:    -6.109      8.022     10.492
 INTER + INTRA:          -9.007
 INTER:                  -8.689
 INTRA:                  -0.318
 UNBOUND:                -0.398
  Name = CHEMBL4592344
  10 active torsions:
  status: ('A' for Active; 'I' for Inactive)
    1  A    between atoms: C_1  and  O_2
    2  A    between atoms: O_2  and  C_3
    3  A    between atoms: C_5  and  C_6
    4  A    between atoms: N_7  and  N_8
    5  A    between atoms: C_9  and  C_11
    6  A    between atoms: C_11  and  C_12
    7  A    between atoms: C_12  and  C_13
    8  A    between atoms: C_13  and  C_14
    9  A    between atoms: C_13  and  O_15
   10  A    between atoms: C_18  and  O_19
                            x       y       z     vdW  Elec       q    Type
                         _______ _______ _______ _____ _____    ______ ____

>  <TORSDO>
F 8

>  <SCORE>
-6.109

>  <RMSD_LB>
8.022

>  <RMSD_UB>
10.492

$$$$
CHEMBL4592344
 OpenBabel10172500293D

 22 22  0  0  1  0  0  0  0  0999 V2000
  135.2740  135.8820  154.2870 C   0  0  0  0  0  3  0  0  0  0  0  0
  135.2000  136.2860  153.0630 N   0  0  0  0  0  0  0  0  0  0  0  0
  138.3160  137.7890  155.4770 C   0  0  0  0  0  0  0  0  0  0  0  0
  137.2640  137.3360  154.6800 C   0  0  0  0  0  3  0  0  0  0  0  0
  136.3810  136.3530  155.1530 C   0  0  0  0  0  0  0  0  0  0  0  0
  136.5470  135.8160  156.4320 C   0  0  0  0  0  3  0  0  0  0  0  0
  137.6010  136.2620  157.2370 C   0  0  0  0  0  3  0  0  0  0  0  0
  138.4750  137.2390  156.7580 C   0  0  0  0  0  0  0  0  0  0  0  0
  139.1970  139.1810  153.7540 C   0  0  0  0  0  1  0  0  0  0  0  0
  139.2270  138.7440  155.1070 O   0  0  0  0  0  0  0  0  0  0  0  0
  139.5110  137.6740  157.5430 O   0  0  0  0  0  0  0  0  0  0  0  0
  139.3750  138.3710  158.1550 H   0  0  0  0  0  0  0  0  0  0  0  0
  134.1820  135.8310  152.2900 N   0  0  0  0  0  0  0  0  0  0  0  0
  134.4420  134.7840  151.4150 C   0  0  0  0  0  0  0  0  0  0  0  0
  135.5280  134.2110  151.3010 O   0  0  0  0  0  0  0  0  0  0  0  0
  133.2850  136.2320  152.3480 H   0  0  0  0  0  0  0  0  0  0  0  0
  133.2540  134.3730  150.5730 C   0  0  0  0  0  2  0  0  0  0  0  0
  133.2820  135.0090  149.1900 C   0  0  0  0  0  2  0  0  0  0  0  0
  133.2130  136.5410  149.1990 C   0  0  1  0  0  3  0  0  0  0  0  0
  132.8370  137.1450  147.8540 C   0  0  0  0  0  1  0  0  0  0  0  0
  132.2390  136.9340  150.1650 O   0  0  0  0  0  0  0  0  0  0  0  0
  131.6280  137.5740  149.7680 H   0  0  0  0  0  0  0  0  0  0  0  0
  1  5  1  0  0  0  0
  2  1  2  0  0  0  0
  3  8  1  0  0  0  0
  4  5  1  0  0  0  0
  4  3  2  0  0  0  0
  5  6  2  0  0  0  0
  6  7  1  0  0  0  0
  8  7  2  0  0  0  0
  8 11  1  0  0  0  0
  9 10  1  0  0  0  0
 10  3  1  0  0  0  0
 11 12  1  0  0  0  0
 13 16  1  0  0  0  0
 13  2  1  0  0  0  0
 14 13  1  0  0  0  0
 15 14  2  0  0  0  0
 17 14  1  0  0  0  0
 18 19  1  0  0  0  0
 18 17  1  0  0  0  0
 19 20  1  6  0  0  0
 19 21  1  0  0  0  0
 22 21  1  0  0  0  0
M  END
>  <MODEL>
6

>  <REMARK>
 VINA RESULT:    -5.934      2.173      8.079
 INTER + INTRA:          -8.761
 INTER:                  -8.341
 INTRA:                  -0.420
 UNBOUND:                -0.398
  Name = CHEMBL4592344
  10 active torsions:
  status: ('A' for Active; 'I' for Inactive)
    1  A    between atoms: C_1  and  O_2
    2  A    between atoms: O_2  and  C_3
    3  A    between atoms: C_5  and  C_6
    4  A    between atoms: N_7  and  N_8
    5  A    between atoms: C_9  and  C_11
    6  A    between atoms: C_11  and  C_12
    7  A    between atoms: C_12  and  C_13
    8  A    between atoms: C_13  and  C_14
    9  A    between atoms: C_13  and  O_15
   10  A    between atoms: C_18  and  O_19
                            x       y       z     vdW  Elec       q    Type
                         _______ _______ _______ _____ _____    ______ ____

>  <TORSDO>
F 8

>  <SCORE>
-5.934

>  <RMSD_LB>
2.173

>  <RMSD_UB>
8.079

$$$$
CHEMBL4592344
 OpenBabel10172500293D

 22 22  0  0  1  0  0  0  0  0999 V2000
  135.0430  135.4420  152.2770 C   0  0  0  0  0  3  0  0  0  0  0  0
  134.8610  134.8560  153.4140 N   0  0  0  0  0  0  0  0  0  0  0  0
  133.1010  135.5280  149.0330 C   0  0  0  0  0  0  0  0  0  0  0  0
  133.8180  135.9340  150.1590 C   0  0  0  0  0  3  0  0  0  0  0  0
  134.2890  134.9880  151.0850 C   0  0  0  0  0  0  0  0  0  0  0  0
  134.0430  133.6280  150.8870 C   0  0  0  0  0  3  0  0  0  0  0  0
  133.3220  133.2130  149.7620 C   0  0  0  0  0  3  0  0  0  0  0  0
  132.8570  134.1600  148.8470 C   0  0  0  0  0  0  0  0  0  0  0  0
  133.5450  137.0470  147.2500 C   0  0  0  0  0  1  0  0  0  0  0  0
  132.6040  136.3720  148.0730 O   0  0  0  0  0  0  0  0  0  0  0  0
  132.1460  133.7550  147.7470 O   0  0  0  0  0  0  0  0  0  0  0  0
  131.2580  134.0330  147.6350 H   0  0  0  0  0  0  0  0  0  0  0  0
  135.5730  135.2840  154.4860 N   0  0  0  0  0  0  0  0  0  0  0  0
  135.0710  135.0190  155.7530 C   0  0  0  0  0  0  0  0  0  0  0  0
  134.0330  134.3950  155.9880 O   0  0  0  0  0  0  0  0  0  0  0  0
  136.4200  135.7710  154.3690 H   0  0  0  0  0  0  0  0  0  0  0  0
  135.9180  135.5670  156.8810 C   0  0  0  0  0  2  0  0  0  0  0  0
  135.2610  135.3730  158.2410 C   0  0  0  0  0  2  0  0  0  0  0  0
  135.7740  136.3230  159.3300 C   0  0  1  0  0  3  0  0  0  0  0  0
  136.4180  137.5890  158.7840 C   0  0  0  0  0  1  0  0  0  0  0  0
  134.6670  136.6920  160.1530 O   0  0  0  0  0  0  0  0  0  0  0  0
  134.0660  135.9360  160.2450 H   0  0  0  0  0  0  0  0  0  0  0  0
  1  2  2  0  0  0  0
  2 13  1  0  0  0  0
  3  4  1  0  0  0  0
  4  5  2  0  0  0  0
  5  1  1  0  0  0  0
  6  5  1  0  0  0  0
  7  6  2  0  0  0  0
  8  3  2  0  0  0  0
  8  7  1  0  0  0  0
  9 10  1  0  0  0  0
 10  3  1  0  0  0  0
 11  8  1  0  0  0  0
 12 11  1  0  0  0  0
 13 14  1  0  0  0  0
 14 15  2  0  0  0  0
 14 17  1  0  0  0  0
 16 13  1  0  0  0  0
 17 18  1  0  0  0  0
 18 19  1  0  0  0  0
 19 20  1  6  0  0  0
 19 21  1  0  0  0  0
 21 22  1  0  0  0  0
M  END
>  <MODEL>
7

>  <REMARK>
 VINA RESULT:    -5.908      2.066      2.204
 INTER + INTRA:          -8.723
 INTER:                  -8.417
 INTRA:                  -0.307
 UNBOUND:                -0.398
  Name = CHEMBL4592344
  10 active torsions:
  status: ('A' for Active; 'I' for Inactive)
    1  A    between atoms: C_1  and  O_2
    2  A    between atoms: O_2  and  C_3
    3  A    between atoms: C_5  and  C_6
    4  A    between atoms: N_7  and  N_8
    5  A    between atoms: C_9  and  C_11
    6  A    between atoms: C_11  and  C_12
    7  A    between atoms: C_12  and  C_13
    8  A    between atoms: C_13  and  C_14
    9  A    between atoms: C_13  and  O_15
   10  A    between atoms: C_18  and  O_19
                            x       y       z     vdW  Elec       q    Type
                         _______ _______ _______ _____ _____    ______ ____

>  <TORSDO>
F 8

>  <SCORE>
-5.908

>  <RMSD_LB>
2.066

>  <RMSD_UB>
2.204

$$$$
CHEMBL4592344
 OpenBabel10172500293D

 22 22  0  0  1  0  0  0  0  0999 V2000
  137.8540  137.4300  154.5940 C   0  0  0  0  0  3  0  0  0  0  0  0
  137.9680  137.5630  153.3150 N   0  0  0  0  0  0  0  0  0  0  0  0
  134.9420  135.0250  154.7930 C   0  0  0  0  0  0  0  0  0  0  0  0
  135.9370  135.8620  154.2870 C   0  0  0  0  0  3  0  0  0  0  0  0
  136.8090  136.5410  155.1530 C   0  0  0  0  0  0  0  0  0  0  0  0
  136.6880  136.3850  156.5360 C   0  0  0  0  0  3  0  0  0  0  0  0
  135.6920  135.5500  157.0520 C   0  0  0  0  0  3  0  0  0  0  0  0
  134.8280  134.8790  156.1840 C   0  0  0  0  0  0  0  0  0  0  0  0
  133.5990  134.9260  152.8270 C   0  0  0  0  0  1  0  0  0  0  0  0
  134.0470  134.3190  154.0310 O   0  0  0  0  0  0  0  0  0  0  0  0
  133.8480  134.0640  156.6870 O   0  0  0  0  0  0  0  0  0  0  0  0
  133.2750  134.3800  157.3590 H   0  0  0  0  0  0  0  0  0  0  0  0
  138.9270  138.3920  152.8310 N   0  0  0  0  0  0  0  0  0  0  0  0
  139.5640  138.0370  151.6500 C   0  0  0  0  0  0  0  0  0  0  0  0
  139.3090  137.0320  150.9820 O   0  0  0  0  0  0  0  0  0  0  0  0
  139.1640  139.2210  153.3050 H   0  0  0  0  0  0  0  0  0  0  0  0
  140.6410  139.0060  151.2130 C   0  0  0  0  0  2  0  0  0  0  0  0
  140.3290  139.6420  149.8650 C   0  0  0  0  0  2  0  0  0  0  0  0
  139.3070  140.7860  149.9290 C   0  0  1  0  0  3  0  0  0  0  0  0
  137.9860  140.4640  149.2450 C   0  0  0  0  0  1  0  0  0  0  0  0
  139.0530  141.0750  151.3030 O   0  0  0  0  0  0  0  0  0  0  0  0
  138.1850  141.4990  151.3900 H   0  0  0  0  0  0  0  0  0  0  0  0
  1  5  1  0  0  0  0
  2  1  2  0  0  0  0
  3  8  1  0  0  0  0
  4  3  2  0  0  0  0
  4  5  1  0  0  0  0
  5  6  2  0  0  0  0
  6  7  1  0  0  0  0
  8 11  1  0  0  0  0
  8  7  2  0  0  0  0
  9 10  1  0  0  0  0
 10  3  1  0  0  0  0
 11 12  1  0  0  0  0
 13 16  1  0  0  0  0
 13  2  1  0  0  0  0
 14 13  1  0  0  0  0
 15 14  2  0  0  0  0
 17 14  1  0  0  0  0
 18 19  1  0  0  0  0
 18 17  1  0  0  0  0
 19 20  1  1  0  0  0
 19 21  1  0  0  0  0
 21 22  1  0  0  0  0
M  END
>  <MODEL>
8

>  <REMARK>
 VINA RESULT:    -5.907      4.485      7.168
 INTER + INTRA:          -8.722
 INTER:                  -8.254
 INTRA:                  -0.468
 UNBOUND:                -0.398
  Name = CHEMBL4592344
  10 active torsions:
  status: ('A' for Active; 'I' for Inactive)
    1  A    between atoms: C_1  and  O_2
    2  A    between atoms: O_2  and  C_3
    3  A    between atoms: C_5  and  C_6
    4  A    between atoms: N_7  and  N_8
    5  A    between atoms: C_9  and  C_11
    6  A    between atoms: C_11  and  C_12
    7  A    between atoms: C_12  and  C_13
    8  A    between atoms: C_13  and  C_14
    9  A    between atoms: C_13  and  O_15
   10  A    between atoms: C_18  and  O_19
                            x       y       z     vdW  Elec       q    Type
                         _______ _______ _______ _____ _____    ______ ____

>  <TORSDO>
F 8

>  <SCORE>
-5.907

>  <RMSD_LB>
4.485

>  <RMSD_UB>
7.168

$$$$
CHEMBL4592344
 OpenBabel10172500293D

 22 22  0  0  1  0  0  0  0  0999 V2000
  138.4940  137.6530  151.0250 C   0  0  0  0  0  3  0  0  0  0  0  0
  137.3130  137.1490  151.1650 N   0  0  0  0  0  0  0  0  0  0  0  0
  139.6120  138.2440  154.5900 C   0  0  0  0  0  0  0  0  0  0  0  0
  138.8030  138.0810  153.4640 C   0  0  0  0  0  3  0  0  0  0  0  0
  139.3720  137.8160  152.2080 C   0  0  0  0  0  0  0  0  0  0  0  0
  140.7570  137.7120  152.0720 C   0  0  0  0  0  3  0  0  0  0  0  0
  141.5760  137.8760  153.1940 C   0  0  0  0  0  3  0  0  0  0  0  0
  141.0030  138.1410  154.4390 C   0  0  0  0  0  0  0  0  0  0  0  0
  138.4690  137.4520  156.5260 C   0  0  0  0  0  1  0  0  0  0  0  0
  139.1530  138.5020  155.8550 O   0  0  0  0  0  0  0  0  0  0  0  0
  141.8030  138.3070  155.5390 O   0  0  0  0  0  0  0  0  0  0  0  0
  141.8520  137.6340  156.1900 H   0  0  0  0  0  0  0  0  0  0  0  0
  136.5270  137.0220  150.0670 N   0  0  0  0  0  0  0  0  0  0  0  0
  135.6550  135.9430  150.0070 C   0  0  0  0  0  0  0  0  0  0  0  0
  135.5140  135.0970  150.8930 O   0  0  0  0  0  0  0  0  0  0  0  0
  136.5760  137.6750  149.3320 H   0  0  0  0  0  0  0  0  0  0  0  0
  134.8490  135.8700  148.7290 C   0  0  0  0  0  2  0  0  0  0  0  0
  133.5600  135.0780  148.9060 C   0  0  0  0  0  2  0  0  0  0  0  0
  133.4720  133.8150  148.0390 C   0  0  1  0  0  3  0  0  0  0  0  0
  133.9860  132.5610  148.7300 C   0  0  0  0  0  1  0  0  0  0  0  0
  132.1030  133.6150  147.6880 O   0  0  0  0  0  0  0  0  0  0  0  0
  131.6490  133.1500  148.4080 H   0  0  0  0  0  0  0  0  0  0  0  0
  1  2  2  0  0  0  0
  1  5  1  0  0  0  0
  3 10  1  0  0  0  0
  4  3  2  0  0  0  0
  5  4  1  0  0  0  0
  6  5  2  0  0  0  0
  6  7  1  0  0  0  0
  7  8  2  0  0  0  0
  8  3  1  0  0  0  0
  8 11  1  0  0  0  0
 10  9  1  0  0  0  0
 11 12  1  0  0  0  0
 13  2  1  0  0  0  0
 14 13  1  0  0  0  0
 14 15  2  0  0  0  0
 16 13  1  0  0  0  0
 17 18  1  0  0  0  0
 17 14  1  0  0  0  0
 19 20  1  1  0  0  0
 19 18  1  0  0  0  0
 21 19  1  0  0  0  0
 21 22  1  0  0  0  0
M  END
>  <MODEL>
9

>  <REMARK>
 VINA RESULT:    -5.803      3.641      8.856
 INTER + INTRA:          -8.575
 INTER:                  -8.177
 INTRA:                  -0.398
 UNBOUND:                -0.398
  Name = CHEMBL4592344
  10 active torsions:
  status: ('A' for Active; 'I' for Inactive)
    1  A    between atoms: C_1  and  O_2
    2  A    between atoms: O_2  and  C_3
    3  A    between atoms: C_5  and  C_6
    4  A    between atoms: N_7  and  N_8
    5  A    between atoms: C_9  and  C_11
    6  A    between atoms: C_11  and  C_12
    7  A    between atoms: C_12  and  C_13
    8  A    between atoms: C_13  and  C_14
    9  A    between atoms: C_13  and  O_15
   10  A    between atoms: C_18  and  O_19
                            x       y       z     vdW  Elec       q    Type
                         _______ _______ _______ _____ _____    ______ ____

>  <TORSDO>
F 8

>  <SCORE>
-5.803

>  <RMSD_LB>
3.641

>  <RMSD_UB>
8.856

$$$$
