CHEMBL123255
 OpenBabel10172500413D

 20 20  0  0  0  0  0  0  0  0999 V2000
  135.1280  135.7370  155.2840 C   0  0  0  0  0  2  0  0  0  0  0  0
  136.3940  136.5570  155.2820 C   0  0  0  0  0  0  0  0  0  0  0  0
  137.0380  136.8660  154.0780 C   0  0  0  0  0  3  0  0  0  0  0  0
  138.1870  137.6600  154.0710 C   0  0  0  0  0  3  0  0  0  0  0  0
  138.7100  138.1550  155.2690 C   0  0  0  0  0  0  0  0  0  0  0  0
  138.1050  137.8340  156.4890 C   0  0  0  0  0  0  0  0  0  0  0  0
  136.9530  137.0290  156.4800 C   0  0  0  0  0  3  0  0  0  0  0  0
  139.8180  138.9560  155.2050 O   0  0  0  0  0  0  0  0  0  0  0  0
  140.2770  139.1830  155.9890 H   0  0  0  0  0  0  0  0  0  0  0  0
  138.4820  138.2150  157.7500 O   0  0  0  0  0  0  0  0  0  0  0  0
  137.6370  137.8570  158.8350 C   0  0  0  0  0  1  0  0  0  0  0  0
  134.2590  134.1840  153.5930 C   0  0  0  0  0  0  0  0  0  0  0  0
  134.2880  133.2240  154.3490 O   0  0  0  0  0  0  0  0  0  0  0  0
  134.6520  135.4530  153.9470 N   0  0  0  0  0  0  0  0  0  0  0  0
  134.6090  136.1780  153.2820 H   0  0  0  0  0  0  0  0  0  0  0  0
  134.6590  133.6900  151.2280 C   0  0  0  0  0  3  0  0  0  0  0  0
  133.7980  134.0770  152.1820 C   0  0  0  0  0  3  0  0  0  0  0  0
  132.6770  133.6640  147.9330 C   0  0  0  0  0  1  0  0  0  0  0  0
  133.0610  133.7940  149.3740 C   0  0  0  0  0  3  0  0  0  0  0  0
  134.3000  133.5610  149.8310 C   0  0  0  0  0  3  0  0  0  0  0  0
  2  1  1  0  0  0  0
  2  7  1  0  0  0  0
  3  2  2  0  0  0  0
  4  3  1  0  0  0  0
  4  5  2  0  0  0  0
  5  6  1  0  0  0  0
  6 10  1  0  0  0  0
  7  6  2  0  0  0  0
  8  5  1  0  0  0  0
  8  9  1  0  0  0  0
 10 11  1  0  0  0  0
 12 14  1  0  0  0  0
 12 13  2  0  0  0  0
 14  1  1  0  0  0  0
 15 14  1  0  0  0  0
 16 17  2  0  0  0  0
 17 12  1  0  0  0  0
 18 19  1  0  0  0  0
 19 20  2  0  0  0  0
 20 16  1  0  0  0  0
M  END
>  <MODEL>
1

>  <REMARK>
 VINA RESULT:    -6.504      0.000      0.000
 INTER + INTRA:          -8.938
 INTER:                  -8.520
 INTRA:                  -0.418
 UNBOUND:                -0.342
  Name = CHEMBL123255
  8 active torsions:
  status: ('A' for Active; 'I' for Inactive)
    1  A    between atoms: C_1  and  C_2
    2  A    between atoms: C_3  and  C_4
    3  A    between atoms: C_5  and  C_6
    4  A    between atoms: N_8  and  C_9
    5  A    between atoms: C_9  and  C_10
    6  A    between atoms: C_13  and  O_14
    7  A    between atoms: C_15  and  O_16
    8  A    between atoms: O_16  and  C_17
                            x       y       z     vdW  Elec       q    Type
                         _______ _______ _______ _____ _____    ______ ____

>  <TORSDO>
F 6

>  <SCORE>
-6.504

>  <RMSD_LB>
0.000

>  <RMSD_UB>
0.000

$$$$
CHEMBL123255
 OpenBabel10172500413D

 20 20  0  0  0  0  0  0  0  0999 V2000
  137.2390  137.4430  154.9110 C   0  0  0  0  0  2  0  0  0  0  0  0
  136.3080  136.2930  154.6140 C   0  0  0  0  0  0  0  0  0  0  0  0
  136.1580  135.8200  153.3050 C   0  0  0  0  0  3  0  0  0  0  0  0
  135.3290  134.7300  153.0350 C   0  0  0  0  0  3  0  0  0  0  0  0
  134.6360  134.0970  154.0710 C   0  0  0  0  0  0  0  0  0  0  0  0
  134.7420  134.5700  155.3830 C   0  0  0  0  0  0  0  0  0  0  0  0
  135.5760  135.6730  155.6380 C   0  0  0  0  0  3  0  0  0  0  0  0
  133.8620  133.0120  153.7580 O   0  0  0  0  0  0  0  0  0  0  0  0
  132.9580  133.1270  153.5450 H   0  0  0  0  0  0  0  0  0  0  0  0
  134.1320  134.0880  156.5120 O   0  0  0  0  0  0  0  0  0  0  0  0
  134.3460  134.7820  157.7330 C   0  0  0  0  0  1  0  0  0  0  0  0
  139.4230  138.3520  154.2540 C   0  0  0  0  0  0  0  0  0  0  0  0
  139.3500  139.2950  155.0290 O   0  0  0  0  0  0  0  0  0  0  0  0
  138.4460  137.3950  154.1140 N   0  0  0  0  0  0  0  0  0  0  0  0
  138.5700  136.6660  153.4640 H   0  0  0  0  0  0  0  0  0  0  0  0
  140.4130  137.5920  152.1470 C   0  0  0  0  0  3  0  0  0  0  0  0
  140.5930  138.1420  153.3590 C   0  0  0  0  0  3  0  0  0  0  0  0
  143.8930  136.9610  150.6390 C   0  0  0  0  0  1  0  0  0  0  0  0
  142.7700  137.2130  151.5950 C   0  0  0  0  0  3  0  0  0  0  0  0
  141.4920  137.3480  151.2130 C   0  0  0  0  0  3  0  0  0  0  0  0
  2  1  1  0  0  0  0
  2  7  1  0  0  0  0
  3  2  2  0  0  0  0
  4  3  1  0  0  0  0
  4  5  2  0  0  0  0
  5  6  1  0  0  0  0
  6  7  2  0  0  0  0
  6 10  1  0  0  0  0
  8  5  1  0  0  0  0
  9  8  1  0  0  0  0
 10 11  1  0  0  0  0
 12 13  2  0  0  0  0
 14 12  1  0  0  0  0
 14  1  1  0  0  0  0
 15 14  1  0  0  0  0
 16 17  2  0  0  0  0
 17 12  1  0  0  0  0
 18 19  1  0  0  0  0
 20 19  2  0  0  0  0
 20 16  1  0  0  0  0
M  END
>  <MODEL>
2

>  <REMARK>
 VINA RESULT:    -6.427      2.870      6.600
 INTER + INTRA:          -8.835
 INTER:                  -8.423
 INTRA:                  -0.412
 UNBOUND:                -0.342
  Name = CHEMBL123255
  8 active torsions:
  status: ('A' for Active; 'I' for Inactive)
    1  A    between atoms: C_1  and  C_2
    2  A    between atoms: C_3  and  C_4
    3  A    between atoms: C_5  and  C_6
    4  A    between atoms: N_8  and  C_9
    5  A    between atoms: C_9  and  C_10
    6  A    between atoms: C_13  and  O_14
    7  A    between atoms: C_15  and  O_16
    8  A    between atoms: O_16  and  C_17
                            x       y       z     vdW  Elec       q    Type
                         _______ _______ _______ _____ _____    ______ ____

>  <TORSDO>
F 6

>  <SCORE>
-6.427

>  <RMSD_LB>
2.870

>  <RMSD_UB>
6.600

$$$$
CHEMBL123255
 OpenBabel10172500413D

 20 20  0  0  0  0  0  0  0  0999 V2000
  138.3310  137.6160  157.0190 C   0  0  0  0  0  2  0  0  0  0  0  0
  137.1580  136.6880  156.8210 C   0  0  0  0  0  0  0  0  0  0  0  0
  136.7470  136.3280  155.5320 C   0  0  0  0  0  3  0  0  0  0  0  0
  135.6900  135.4360  155.3480 C   0  0  0  0  0  3  0  0  0  0  0  0
  135.0240  134.8930  156.4520 C   0  0  0  0  0  0  0  0  0  0  0  0
  135.3940  135.2610  157.7490 C   0  0  0  0  0  0  0  0  0  0  0  0
  136.4570  136.1650  157.9180 C   0  0  0  0  0  3  0  0  0  0  0  0
  134.0160  133.9970  156.2170 O   0  0  0  0  0  0  0  0  0  0  0  0
  133.4780  134.0860  155.4560 H   0  0  0  0  0  0  0  0  0  0  0  0
  134.8520  134.8440  158.9370 O   0  0  0  0  0  0  0  0  0  0  0  0
  134.2000  135.8110  159.7490 C   0  0  0  0  0  1  0  0  0  0  0  0
  139.4820  138.3390  154.9750 C   0  0  0  0  0  0  0  0  0  0  0  0
  138.7670  139.3190  154.8270 O   0  0  0  0  0  0  0  0  0  0  0  0
  139.3510  137.4410  156.0070 N   0  0  0  0  0  0  0  0  0  0  0  0
  139.9590  136.6680  156.0600 H   0  0  0  0  0  0  0  0  0  0  0  0
  140.3140  137.8390  152.7260 C   0  0  0  0  0  3  0  0  0  0  0  0
  140.5830  138.0030  154.0310 C   0  0  0  0  0  3  0  0  0  0  0  0
  143.6670  137.0300  151.0270 C   0  0  0  0  0  1  0  0  0  0  0  0
  142.6190  137.3710  152.0390 C   0  0  0  0  0  3  0  0  0  0  0  0
  141.3190  137.5090  151.7380 C   0  0  0  0  0  3  0  0  0  0  0  0
  2  1  1  0  0  0  0
  2  7  1  0  0  0  0
  3  2  2  0  0  0  0
  4  3  1  0  0  0  0
  4  5  2  0  0  0  0
  5  6  1  0  0  0  0
  6  7  2  0  0  0  0
  6 10  1  0  0  0  0
  8  5  1  0  0  0  0
  9  8  1  0  0  0  0
 10 11  1  0  0  0  0
 12 14  1  0  0  0  0
 13 12  2  0  0  0  0
 14 15  1  0  0  0  0
 14  1  1  0  0  0  0
 16 17  2  0  0  0  0
 17 12  1  0  0  0  0
 18 19  1  0  0  0  0
 20 19  2  0  0  0  0
 20 16  1  0  0  0  0
M  END
>  <MODEL>
3

>  <REMARK>
 VINA RESULT:    -6.388      3.716      6.469
 INTER + INTRA:          -8.785
 INTER:                  -8.415
 INTRA:                  -0.370
 UNBOUND:                -0.342
  Name = CHEMBL123255
  8 active torsions:
  status: ('A' for Active; 'I' for Inactive)
    1  A    between atoms: C_1  and  C_2
    2  A    between atoms: C_3  and  C_4
    3  A    between atoms: C_5  and  C_6
    4  A    between atoms: N_8  and  C_9
    5  A    between atoms: C_9  and  C_10
    6  A    between atoms: C_13  and  O_14
    7  A    between atoms: C_15  and  O_16
    8  A    between atoms: O_16  and  C_17
                            x       y       z     vdW  Elec       q    Type
                         _______ _______ _______ _____ _____    ______ ____

>  <TORSDO>
F 6

>  <SCORE>
-6.388

>  <RMSD_LB>
3.716

>  <RMSD_UB>
6.469

$$$$
CHEMBL123255
 OpenBabel10172500413D

 20 20  0  0  0  0  0  0  0  0999 V2000
  142.3620  138.9500  154.7380 C   0  0  0  0  0  2  0  0  0  0  0  0
  141.0290  138.6300  154.1070 C   0  0  0  0  0  0  0  0  0  0  0  0
  140.9660  138.0600  152.8300 C   0  0  0  0  0  3  0  0  0  0  0  0
  139.7360  137.7230  152.2630 C   0  0  0  0  0  3  0  0  0  0  0  0
  138.5490  137.9560  152.9640 C   0  0  0  0  0  0  0  0  0  0  0  0
  138.5820  138.5550  154.2280 C   0  0  0  0  0  0  0  0  0  0  0  0
  139.8280  138.8930  154.7830 C   0  0  0  0  0  3  0  0  0  0  0  0
  137.3710  137.5780  152.3780 O   0  0  0  0  0  0  0  0  0  0  0  0
  136.5580  137.7380  152.8150 H   0  0  0  0  0  0  0  0  0  0  0  0
  137.5280  138.8680  155.0470 O   0  0  0  0  0  0  0  0  0  0  0  0
  137.1050  137.8930  155.9900 C   0  0  0  0  0  1  0  0  0  0  0  0
  144.6160  139.3460  153.8480 C   0  0  0  0  0  0  0  0  0  0  0  0
  145.1460  138.5770  154.6380 O   0  0  0  0  0  0  0  0  0  0  0  0
  143.2660  139.6040  153.8150 N   0  0  0  0  0  0  0  0  0  0  0  0
  142.9100  140.2410  153.1550 H   0  0  0  0  0  0  0  0  0  0  0  0
  145.7850  141.3600  153.0900 C   0  0  0  0  0  3  0  0  0  0  0  0
  145.3910  140.1030  152.8280 C   0  0  0  0  0  3  0  0  0  0  0  0
  147.1650  142.9110  149.8530 C   0  0  0  0  0  1  0  0  0  0  0  0
  146.3920  142.0770  150.8270 C   0  0  0  0  0  3  0  0  0  0  0  0
  146.5380  142.1710  152.1570 C   0  0  0  0  0  3  0  0  0  0  0  0
  2  1  1  0  0  0  0
  2  7  1  0  0  0  0
  3  2  2  0  0  0  0
  4  3  1  0  0  0  0
  4  5  2  0  0  0  0
  5  6  1  0  0  0  0
  6  7  2  0  0  0  0
  6 10  1  0  0  0  0
  8  9  1  0  0  0  0
  8  5  1  0  0  0  0
 10 11  1  0  0  0  0
 12 13  2  0  0  0  0
 14 12  1  0  0  0  0
 14  1  1  0  0  0  0
 15 14  1  0  0  0  0
 17 16  2  0  0  0  0
 17 12  1  0  0  0  0
 18 19  1  0  0  0  0
 19 20  2  0  0  0  0
 20 16  1  0  0  0  0
M  END
>  <MODEL>
4

>  <REMARK>
 VINA RESULT:    -6.379      5.989      9.658
 INTER + INTRA:          -8.773
 INTER:                  -8.394
 INTRA:                  -0.379
 UNBOUND:                -0.342
  Name = CHEMBL123255
  8 active torsions:
  status: ('A' for Active; 'I' for Inactive)
    1  A    between atoms: C_1  and  C_2
    2  A    between atoms: C_3  and  C_4
    3  A    between atoms: C_5  and  C_6
    4  A    between atoms: N_8  and  C_9
    5  A    between atoms: C_9  and  C_10
    6  A    between atoms: C_13  and  O_14
    7  A    between atoms: C_15  and  O_16
    8  A    between atoms: O_16  and  C_17
                            x       y       z     vdW  Elec       q    Type
                         _______ _______ _______ _____ _____    ______ ____

>  <TORSDO>
F 6

>  <SCORE>
-6.379

>  <RMSD_LB>
5.989

>  <RMSD_UB>
9.658

$$$$
CHEMBL123255
 OpenBabel10172500413D

 20 20  0  0  0  0  0  0  0  0999 V2000
  137.3280  137.9690  155.5840 C   0  0  0  0  0  2  0  0  0  0  0  0
  136.4310  136.7950  155.8900 C   0  0  0  0  0  0  0  0  0  0  0  0
  136.4440  136.2040  157.1590 C   0  0  0  0  0  3  0  0  0  0  0  0
  135.5850  135.1450  157.4570 C   0  0  0  0  0  3  0  0  0  0  0  0
  134.7020  134.6590  156.4890 C   0  0  0  0  0  0  0  0  0  0  0  0
  134.6920  135.2100  155.2030 C   0  0  0  0  0  0  0  0  0  0  0  0
  135.5670  136.2720  154.9170 C   0  0  0  0  0  3  0  0  0  0  0  0
  133.8570  133.6410  156.8410 O   0  0  0  0  0  0  0  0  0  0  0  0
  133.9690  133.2030  157.6610 H   0  0  0  0  0  0  0  0  0  0  0  0
  133.9110  134.8560  154.1330 O   0  0  0  0  0  0  0  0  0  0  0  0
  134.0980  135.5570  152.9120 C   0  0  0  0  0  1  0  0  0  0  0  0
  139.0750  138.6290  153.9900 C   0  0  0  0  0  0  0  0  0  0  0  0
  138.8950  139.8250  154.1700 O   0  0  0  0  0  0  0  0  0  0  0  0
  138.3600  137.6410  154.6250 N   0  0  0  0  0  0  0  0  0  0  0  0
  138.5550  136.6960  154.4260 H   0  0  0  0  0  0  0  0  0  0  0  0
  139.7340  137.7720  151.7930 C   0  0  0  0  0  3  0  0  0  0  0  0
  140.0960  138.1070  153.0410 C   0  0  0  0  0  3  0  0  0  0  0  0
  142.9140  136.4850  150.0580 C   0  0  0  0  0  1  0  0  0  0  0  0
  141.9500  137.0200  151.0700 C   0  0  0  0  0  3  0  0  0  0  0  0
  140.6570  137.2540  150.8050 C   0  0  0  0  0  3  0  0  0  0  0  0
  1  2  1  0  0  0  0
  2  3  1  0  0  0  0
  3  4  2  0  0  0  0
  5  8  1  0  0  0  0
  5  4  1  0  0  0  0
  6  5  2  0  0  0  0
  7  6  1  0  0  0  0
  7  2  2  0  0  0  0
  8  9  1  0  0  0  0
 10  6  1  0  0  0  0
 11 10  1  0  0  0  0
 12 13  2  0  0  0  0
 12 14  1  0  0  0  0
 14  1  1  0  0  0  0
 15 14  1  0  0  0  0
 16 17  2  0  0  0  0
 17 12  1  0  0  0  0
 18 19  1  0  0  0  0
 20 19  2  0  0  0  0
 20 16  1  0  0  0  0
M  END
>  <MODEL>
5

>  <REMARK>
 VINA RESULT:    -6.221      2.794      6.479
 INTER + INTRA:          -8.564
 INTER:                  -8.196
 INTRA:                  -0.368
 UNBOUND:                -0.342
  Name = CHEMBL123255
  8 active torsions:
  status: ('A' for Active; 'I' for Inactive)
    1  A    between atoms: C_1  and  C_2
    2  A    between atoms: C_3  and  C_4
    3  A    between atoms: C_5  and  C_6
    4  A    between atoms: N_8  and  C_9
    5  A    between atoms: C_9  and  C_10
    6  A    between atoms: C_13  and  O_14
    7  A    between atoms: C_15  and  O_16
    8  A    between atoms: O_16  and  C_17
                            x       y       z     vdW  Elec       q    Type
                         _______ _______ _______ _____ _____    ______ ____

>  <TORSDO>
F 6

>  <SCORE>
-6.221

>  <RMSD_LB>
2.794

>  <RMSD_UB>
6.479

$$$$
CHEMBL123255
 OpenBabel10172500413D

 20 20  0  0  0  0  0  0  0  0999 V2000
  134.9060  132.3880  147.9900 C   0  0  0  0  0  2  0  0  0  0  0  0
  134.1910  133.6280  148.4670 C   0  0  0  0  0  0  0  0  0  0  0  0
  133.4080  133.5950  149.6270 C   0  0  0  0  0  3  0  0  0  0  0  0
  132.7810  134.7520  150.0930 C   0  0  0  0  0  3  0  0  0  0  0  0
  132.9260  135.9600  149.4040 C   0  0  0  0  0  0  0  0  0  0  0  0
  133.6770  136.0130  148.2250 C   0  0  0  0  0  0  0  0  0  0  0  0
  134.2970  134.8390  147.7650 C   0  0  0  0  0  3  0  0  0  0  0  0
  132.3190  137.0720  149.9220 O   0  0  0  0  0  0  0  0  0  0  0  0
  131.6900  136.9840  150.6100 H   0  0  0  0  0  0  0  0  0  0  0  0
  133.9150  137.0960  147.4190 O   0  0  0  0  0  0  0  0  0  0  0  0
  132.9340  137.4330  146.4480 C   0  0  0  0  0  1  0  0  0  0  0  0
  136.7560  132.7560  146.4190 C   0  0  0  0  0  0  0  0  0  0  0  0
  137.5910  132.8610  147.3070 O   0  0  0  0  0  0  0  0  0  0  0  0
  135.4190  132.5300  146.6440 N   0  0  0  0  0  0  0  0  0  0  0  0
  134.8030  132.4630  145.8800 H   0  0  0  0  0  0  0  0  0  0  0  0
  136.9680  131.8070  144.1710 C   0  0  0  0  0  3  0  0  0  0  0  0
  137.1050  132.8720  144.9770 C   0  0  0  0  0  3  0  0  0  0  0  0
  138.2090  132.9040  140.7020 C   0  0  0  0  0  1  0  0  0  0  0  0
  137.8760  132.8720  142.1600 C   0  0  0  0  0  3  0  0  0  0  0  0
  137.2860  131.8270  142.7590 C   0  0  0  0  0  3  0  0  0  0  0  0
  1  2  1  0  0  0  0
  2  3  1  0  0  0  0
  3  4  2  0  0  0  0
  5  8  1  0  0  0  0
  5  4  1  0  0  0  0
  6  5  2  0  0  0  0
  7  6  1  0  0  0  0
  7  2  2  0  0  0  0
  8  9  1  0  0  0  0
 10  6  1  0  0  0  0
 11 10  1  0  0  0  0
 12 14  1  0  0  0  0
 12 13  2  0  0  0  0
 14  1  1  0  0  0  0
 15 14  1  0  0  0  0
 16 17  2  0  0  0  0
 17 12  1  0  0  0  0
 18 19  1  0  0  0  0
 19 20  2  0  0  0  0
 20 16  1  0  0  0  0
M  END
>  <MODEL>
6

>  <REMARK>
 VINA RESULT:    -6.080      6.705      8.796
 INTER + INTRA:          -8.377
 INTER:                  -7.965
 INTRA:                  -0.412
 UNBOUND:                -0.342
  Name = CHEMBL123255
  8 active torsions:
  status: ('A' for Active; 'I' for Inactive)
    1  A    between atoms: C_1  and  C_2
    2  A    between atoms: C_3  and  C_4
    3  A    between atoms: C_5  and  C_6
    4  A    between atoms: N_8  and  C_9
    5  A    between atoms: C_9  and  C_10
    6  A    between atoms: C_13  and  O_14
    7  A    between atoms: C_15  and  O_16
    8  A    between atoms: O_16  and  C_17
                            x       y       z     vdW  Elec       q    Type
                         _______ _______ _______ _____ _____    ______ ____

>  <TORSDO>
F 6

>  <SCORE>
-6.080

>  <RMSD_LB>
6.705

>  <RMSD_UB>
8.796

$$$$
CHEMBL123255
 OpenBabel10172500413D

 20 20  0  0  0  0  0  0  0  0999 V2000
  142.7720  137.5540  151.3300 C   0  0  0  0  0  2  0  0  0  0  0  0
  141.4350  137.7400  152.0030 C   0  0  0  0  0  0  0  0  0  0  0  0
  141.3590  137.9560  153.3840 C   0  0  0  0  0  3  0  0  0  0  0  0
  140.1250  138.1710  154.0020 C   0  0  0  0  0  3  0  0  0  0  0  0
  138.9480  138.1680  153.2480 C   0  0  0  0  0  0  0  0  0  0  0  0
  138.9930  137.9210  151.8720 C   0  0  0  0  0  0  0  0  0  0  0  0
  140.2420  137.7020  151.2650 C   0  0  0  0  0  3  0  0  0  0  0  0
  137.7680  138.4160  153.8960 O   0  0  0  0  0  0  0  0  0  0  0  0
  137.0350  137.8470  153.7670 H   0  0  0  0  0  0  0  0  0  0  0  0
  137.9500  137.8680  150.9840 O   0  0  0  0  0  0  0  0  0  0  0  0
  137.9600  138.7740  149.8890 C   0  0  0  0  0  1  0  0  0  0  0  0
  143.9980  139.6300  151.7940 C   0  0  0  0  0  0  0  0  0  0  0  0
  143.2960  140.3010  151.0510 O   0  0  0  0  0  0  0  0  0  0  0  0
  143.8310  138.2810  151.9970 N   0  0  0  0  0  0  0  0  0  0  0  0
  144.4400  137.8020  152.6060 H   0  0  0  0  0  0  0  0  0  0  0  0
  145.6750  141.3750  152.1690 C   0  0  0  0  0  3  0  0  0  0  0  0
  145.1330  140.2110  152.5620 C   0  0  0  0  0  3  0  0  0  0  0  0
  148.7020  142.0170  154.4510 C   0  0  0  0  0  1  0  0  0  0  0  0
  147.5560  141.3700  153.7390 C   0  0  0  0  0  3  0  0  0  0  0  0
  146.7820  142.0110  152.8520 C   0  0  0  0  0  3  0  0  0  0  0  0
  1 14  1  0  0  0  0
  1  2  1  0  0  0  0
  2  3  1  0  0  0  0
  3  4  2  0  0  0  0
  5  8  1  0  0  0  0
  5  4  1  0  0  0  0
  6  5  2  0  0  0  0
  7  6  1  0  0  0  0
  7  2  2  0  0  0  0
  9  8  1  0  0  0  0
 10  6  1  0  0  0  0
 11 10  1  0  0  0  0
 12 14  1  0  0  0  0
 12 17  1  0  0  0  0
 13 12  2  0  0  0  0
 14 15  1  0  0  0  0
 16 17  2  0  0  0  0
 16 20  1  0  0  0  0
 19 18  1  0  0  0  0
 20 19  2  0  0  0  0
M  END
>  <MODEL>
7

>  <REMARK>
 VINA RESULT:    -5.948      6.268     10.389
 INTER + INTRA:          -8.202
 INTER:                  -7.860
 INTRA:                  -0.342
 UNBOUND:                -0.342
  Name = CHEMBL123255
  8 active torsions:
  status: ('A' for Active; 'I' for Inactive)
    1  A    between atoms: C_1  and  C_2
    2  A    between atoms: C_3  and  C_4
    3  A    between atoms: C_5  and  C_6
    4  A    between atoms: N_8  and  C_9
    5  A    between atoms: C_9  and  C_10
    6  A    between atoms: C_13  and  O_14
    7  A    between atoms: C_15  and  O_16
    8  A    between atoms: O_16  and  C_17
                            x       y       z     vdW  Elec       q    Type
                         _______ _______ _______ _____ _____    ______ ____

>  <TORSDO>
F 6

>  <SCORE>
-5.948

>  <RMSD_LB>
6.268

>  <RMSD_UB>
10.389

$$$$
CHEMBL123255
 OpenBabel10172500413D

 20 20  0  0  0  0  0  0  0  0999 V2000
  146.4280  139.1510  150.7250 C   0  0  0  0  0  2  0  0  0  0  0  0
  147.1270  139.8790  151.8460 C   0  0  0  0  0  0  0  0  0  0  0  0
  147.4890  141.2240  151.7030 C   0  0  0  0  0  3  0  0  0  0  0  0
  148.0970  141.9110  152.7560 C   0  0  0  0  0  3  0  0  0  0  0  0
  148.3540  141.2610  153.9670 C   0  0  0  0  0  0  0  0  0  0  0  0
  148.0320  139.9100  154.1250 C   0  0  0  0  0  0  0  0  0  0  0  0
  147.4250  139.2300  153.0540 C   0  0  0  0  0  3  0  0  0  0  0  0
  148.9220  141.9880  154.9780 O   0  0  0  0  0  0  0  0  0  0  0  0
  149.7500  141.7310  155.3320 H   0  0  0  0  0  0  0  0  0  0  0  0
  148.2200  139.1140  155.2250 O   0  0  0  0  0  0  0  0  0  0  0  0
  147.0730  138.5450  155.8410 C   0  0  0  0  0  1  0  0  0  0  0  0
  144.6870  137.4800  151.1780 C   0  0  0  0  0  0  0  0  0  0  0  0
  145.4420  136.5340  151.0040 O   0  0  0  0  0  0  0  0  0  0  0  0
  145.0660  138.7970  151.0610 N   0  0  0  0  0  0  0  0  0  0  0  0
  144.4010  139.5080  151.2080 H   0  0  0  0  0  0  0  0  0  0  0  0
  142.7490  137.9340  152.6040 C   0  0  0  0  0  3  0  0  0  0  0  0
  143.2530  137.3030  151.5310 C   0  0  0  0  0  3  0  0  0  0  0  0
  138.9080  137.7760  152.5920 C   0  0  0  0  0  1  0  0  0  0  0  0
  140.3380  137.8940  152.1700 C   0  0  0  0  0  3  0  0  0  0  0  0
  141.3680  137.8180  153.0250 C   0  0  0  0  0  3  0  0  0  0  0  0
  1 14  1  0  0  0  0
  1  2  1  0  0  0  0
  2  7  1  0  0  0  0
  3  2  2  0  0  0  0
  3  4  1  0  0  0  0
  4  5  2  0  0  0  0
  5  6  1  0  0  0  0
  5  8  1  0  0  0  0
  6 10  1  0  0  0  0
  7  6  2  0  0  0  0
  8  9  1  0  0  0  0
 10 11  1  0  0  0  0
 12 17  1  0  0  0  0
 13 12  2  0  0  0  0
 14 12  1  0  0  0  0
 14 15  1  0  0  0  0
 16 20  1  0  0  0  0
 17 16  2  0  0  0  0
 19 18  1  0  0  0  0
 19 20  2  0  0  0  0
M  END
>  <MODEL>
8

>  <REMARK>
 VINA RESULT:    -5.941      8.154     10.542
 INTER + INTRA:          -8.194
 INTER:                  -7.689
 INTRA:                  -0.505
 UNBOUND:                -0.342
  Name = CHEMBL123255
  8 active torsions:
  status: ('A' for Active; 'I' for Inactive)
    1  A    between atoms: C_1  and  C_2
    2  A    between atoms: C_3  and  C_4
    3  A    between atoms: C_5  and  C_6
    4  A    between atoms: N_8  and  C_9
    5  A    between atoms: C_9  and  C_10
    6  A    between atoms: C_13  and  O_14
    7  A    between atoms: C_15  and  O_16
    8  A    between atoms: O_16  and  C_17
                            x       y       z     vdW  Elec       q    Type
                         _______ _______ _______ _____ _____    ______ ____

>  <TORSDO>
F 6

>  <SCORE>
-5.941

>  <RMSD_LB>
8.154

>  <RMSD_UB>
10.542

$$$$
CHEMBL123255
 OpenBabel10172500413D

 20 20  0  0  0  0  0  0  0  0999 V2000
  142.7800  137.6820  151.2700 C   0  0  0  0  0  2  0  0  0  0  0  0
  141.4160  137.8350  151.8960 C   0  0  0  0  0  0  0  0  0  0  0  0
  140.2610  137.5270  151.1670 C   0  0  0  0  0  3  0  0  0  0  0  0
  139.0010  137.6260  151.7590 C   0  0  0  0  0  3  0  0  0  0  0  0
  138.8770  138.0390  153.0890 C   0  0  0  0  0  0  0  0  0  0  0  0
  140.0120  138.3840  153.8290 C   0  0  0  0  0  0  0  0  0  0  0  0
  141.2730  138.2840  153.2180 C   0  0  0  0  0  3  0  0  0  0  0  0
  137.6210  138.0890  153.6320 O   0  0  0  0  0  0  0  0  0  0  0  0
  137.3400  138.8550  154.0910 H   0  0  0  0  0  0  0  0  0  0  0  0
  140.0800  138.8180  155.1280 O   0  0  0  0  0  0  0  0  0  0  0  0
  140.9220  138.1070  156.0250 C   0  0  0  0  0  1  0  0  0  0  0  0
  144.0030  139.8080  151.3760 C   0  0  0  0  0  0  0  0  0  0  0  0
  143.4270  140.2770  150.4050 O   0  0  0  0  0  0  0  0  0  0  0  0
  143.7670  138.5500  151.8770 N   0  0  0  0  0  0  0  0  0  0  0  0
  144.2740  138.2350  152.6590 H   0  0  0  0  0  0  0  0  0  0  0  0
  146.0840  141.0970  151.4640 C   0  0  0  0  0  3  0  0  0  0  0  0
  145.0470  140.5600  152.1260 C   0  0  0  0  0  3  0  0  0  0  0  0
  149.5430  142.2490  152.6860 C   0  0  0  0  0  1  0  0  0  0  0  0
  148.4370  141.4890  152.0230 C   0  0  0  0  0  3  0  0  0  0  0  0
  147.1460  141.8400  152.1100 C   0  0  0  0  0  3  0  0  0  0  0  0
  1 14  1  0  0  0  0
  1  2  1  0  0  0  0
  2  7  1  0  0  0  0
  3  4  1  0  0  0  0
  3  2  2  0  0  0  0
  4  5  2  0  0  0  0
  5  8  1  0  0  0  0
  5  6  1  0  0  0  0
  6 10  1  0  0  0  0
  7  6  2  0  0  0  0
  8  9  1  0  0  0  0
 10 11  1  0  0  0  0
 12 14  1  0  0  0  0
 12 17  1  0  0  0  0
 13 12  2  0  0  0  0
 14 15  1  0  0  0  0
 16 20  1  0  0  0  0
 16 17  2  0  0  0  0
 19 20  2  0  0  0  0
 19 18  1  0  0  0  0
M  END
>  <MODEL>
9

>  <REMARK>
 VINA RESULT:    -5.853      6.490     10.216
 INTER + INTRA:          -8.078
 INTER:                  -7.680
 INTRA:                  -0.398
 UNBOUND:                -0.342
  Name = CHEMBL123255
  8 active torsions:
  status: ('A' for Active; 'I' for Inactive)
    1  A    between atoms: C_1  and  C_2
    2  A    between atoms: C_3  and  C_4
    3  A    between atoms: C_5  and  C_6
    4  A    between atoms: N_8  and  C_9
    5  A    between atoms: C_9  and  C_10
    6  A    between atoms: C_13  and  O_14
    7  A    between atoms: C_15  and  O_16
    8  A    between atoms: O_16  and  C_17
                            x       y       z     vdW  Elec       q    Type
                         _______ _______ _______ _____ _____    ______ ____

>  <TORSDO>
F 6

>  <SCORE>
-5.853

>  <RMSD_LB>
6.490

>  <RMSD_UB>
10.216

$$$$
