CHEMBL1883347
 OpenBabel10172500263D

 26 27  0  0  1  0  0  0  0  0999 V2000
  143.0970  138.7400  153.3010 C   0  0  0  0  0  2  0  0  0  0  0  0
  139.3050  138.2980  153.6760 C   0  0  0  0  0  0  0  0  0  0  0  0
  140.6520  138.6420  153.9280 C   0  0  0  0  0  3  0  0  0  0  0  0
  141.6520  138.4700  152.9620 C   0  0  0  0  0  0  0  0  0  0  0  0
  141.2880  137.9530  151.7170 C   0  0  0  0  0  3  0  0  0  0  0  0
  139.9530  137.6330  151.4480 C   0  0  0  0  0  3  0  0  0  0  0  0
  138.9460  137.8100  152.4110 C   0  0  0  0  0  0  0  0  0  0  0  0
  138.3790  138.3260  154.8380 C   0  0  0  0  0  0  0  0  0  0  0  0
  137.4180  139.0680  154.9510 O   0  0  0  0  0  0  0  0  0  0  0  0
  137.7190  136.4340  156.0590 C   0  0  0  0  0  1  0  0  0  0  0  0
  138.7480  137.3720  155.7330 O   0  0  0  0  0  0  0  0  0  0  0  0
  137.7200  137.3880  151.9760 O   0  0  0  0  0  0  0  0  0  0  0  0
  137.6670  136.6390  150.7670 C   0  0  0  0  0  1  0  0  0  0  0  0
  143.5620  139.9730  152.7130 N   0  0  0  0  0  0  0  0  0  0  0  0
  144.4130  139.9940  151.6310 C   0  0  0  0  0  0  0  0  0  0  0  0
  144.8450  138.9840  151.0880 O   0  0  0  0  0  0  0  0  0  0  0  0
  143.2610  140.8270  153.0980 H   0  0  0  0  0  0  0  0  0  0  0  0
  144.7980  141.3960  151.2030 C   0  0  0  0  0  2  0  0  0  0  0  0
  146.2570  141.4990  150.7280 C   0  0  1  0  0  3  0  0  0  0  0  0
  146.4480  142.6280  149.7040 C   0  0  0  0  0  1  0  0  0  0  0  0
  147.1850  141.7040  151.9170 C   0  0  0  0  0  0  0  0  0  0  0  0
  148.5680  141.8400  151.7170 C   0  0  0  0  0  3  0  0  0  0  0  0
  149.4280  142.0160  152.8010 C   0  0  0  0  0  3  0  0  0  0  0  0
  148.9240  142.0560  154.0990 C   0  0  0  0  0  3  0  0  0  0  0  0
  147.5540  141.9250  154.3150 C   0  0  0  0  0  3  0  0  0  0  0  0
  146.6910  141.7550  153.2320 C   0  0  0  0  0  3  0  0  0  0  0  0
  2  3  1  0  0  0  0
  2  8  1  0  0  0  0
  4  1  1  0  0  0  0
  4  3  2  0  0  0  0
  5  4  1  0  0  0  0
  6  5  2  0  0  0  0
  6  7  1  0  0  0  0
  7  2  2  0  0  0  0
  8  9  2  0  0  0  0
  8 11  1  0  0  0  0
 11 10  1  0  0  0  0
 12  7  1  0  0  0  0
 13 12  1  0  0  0  0
 14 17  1  0  0  0  0
 14  1  1  0  0  0  0
 15 14  1  0  0  0  0
 16 15  2  0  0  0  0
 18 15  1  0  0  0  0
 19 20  1  6  0  0  0
 19 18  1  0  0  0  0
 19 21  1  0  0  0  0
 21 26  1  0  0  0  0
 22 21  2  0  0  0  0
 22 23  1  0  0  0  0
 23 24  2  0  0  0  0
 24 25  1  0  0  0  0
 26 25  2  0  0  0  0
M  END
>  <MODEL>
1

>  <REMARK>
 VINA RESULT:    -7.871      0.000      0.000
 INTER + INTRA:         -12.496
 INTER:                 -11.785
 INTRA:                  -0.711
 UNBOUND:                -0.944
  Name = CHEMBL1883347
  11 active torsions:
  status: ('A' for Active; 'I' for Inactive)
    1  A    between atoms: C_1  and  O_2
    2  A    between atoms: O_2  and  C_3
    3  A    between atoms: C_3  and  C_5
    4  A    between atoms: C_7  and  C_8
    5  A    between atoms: C_8  and  N_9
    6  A    between atoms: C_10  and  C_12
    7  A    between atoms: C_12  and  C_13
    8  A    between atoms: C_13  and  C_14
    9  A    between atoms: C_13  and  C_15
   10  A    between atoms: C_23  and  O_24
   11  A    between atoms: O_24  and  C_25
                            x       y       z     vdW  Elec       q    Type
                         _______ _______ _______ _____ _____    ______ ____

>  <TORSDO>
F 8

>  <SCORE>
-7.871

>  <RMSD_LB>
0.000

>  <RMSD_UB>
0.000

$$$$
CHEMBL1883347
 OpenBabel10172500263D

 26 27  0  0  1  0  0  0  0  0999 V2000
  146.0750  137.1500  154.1860 C   0  0  0  0  0  2  0  0  0  0  0  0
  143.7430  136.9790  151.1440 C   0  0  0  0  0  0  0  0  0  0  0  0
  144.8650  136.8300  151.9920 C   0  0  0  0  0  3  0  0  0  0  0  0
  144.8290  137.2160  153.3380 C   0  0  0  0  0  0  0  0  0  0  0  0
  143.6410  137.7500  153.8430 C   0  0  0  0  0  3  0  0  0  0  0  0
  142.5180  137.8770  153.0190 C   0  0  0  0  0  3  0  0  0  0  0  0
  142.5470  137.4860  151.6710 C   0  0  0  0  0  0  0  0  0  0  0  0
  143.9640  136.7340  149.6950 C   0  0  0  0  0  0  0  0  0  0  0  0
  144.3670  137.5640  148.8970 O   0  0  0  0  0  0  0  0  0  0  0  0
  142.6080  135.2500  148.4850 C   0  0  0  0  0  1  0  0  0  0  0  0
  143.6850  135.4350  149.4080 O   0  0  0  0  0  0  0  0  0  0  0  0
  141.3700  137.7410  151.0220 O   0  0  0  0  0  0  0  0  0  0  0  0
  141.1900  139.0370  150.4620 C   0  0  0  0  0  1  0  0  0  0  0  0
  146.8900  138.3310  154.0320 N   0  0  0  0  0  0  0  0  0  0  0  0
  147.9680  138.3710  153.1760 C   0  0  0  0  0  0  0  0  0  0  0  0
  148.3250  137.4220  152.4890 O   0  0  0  0  0  0  0  0  0  0  0  0
  146.6670  139.1340  154.5550 H   0  0  0  0  0  0  0  0  0  0  0  0
  148.6980  139.6990  153.2010 C   0  0  0  0  0  2  0  0  0  0  0  0
  147.7940  140.8750  153.6010 C   0  0  1  0  0  3  0  0  0  0  0  0
  148.5210  141.8760  154.5110 C   0  0  0  0  0  1  0  0  0  0  0  0
  147.2660  141.5800  152.3590 C   0  0  0  0  0  0  0  0  0  0  0  0
  148.1430  141.9280  151.3190 C   0  0  0  0  0  3  0  0  0  0  0  0
  147.6710  142.5840  150.1830 C   0  0  0  0  0  3  0  0  0  0  0  0
  146.3200  142.9050  150.0650 C   0  0  0  0  0  3  0  0  0  0  0  0
  145.4360  142.5640  151.0870 C   0  0  0  0  0  3  0  0  0  0  0  0
  145.9040  141.9030  152.2230 C   0  0  0  0  0  3  0  0  0  0  0  0
  2  7  2  0  0  0  0
  2  3  1  0  0  0  0
  3  4  2  0  0  0  0
  4  5  1  0  0  0  0
  4  1  1  0  0  0  0
  6  5  2  0  0  0  0
  7  6  1  0  0  0  0
  8  2  1  0  0  0  0
  9  8  2  0  0  0  0
 10 11  1  0  0  0  0
 11  8  1  0  0  0  0
 12  7  1  0  0  0  0
 13 12  1  0  0  0  0
 14  1  1  0  0  0  0
 14 17  1  0  0  0  0
 15 18  1  0  0  0  0
 15 14  1  0  0  0  0
 16 15  2  0  0  0  0
 18 19  1  0  0  0  0
 19 20  1  1  0  0  0
 21 19  1  0  0  0  0
 22 21  2  0  0  0  0
 23 22  1  0  0  0  0
 24 23  2  0  0  0  0
 24 25  1  0  0  0  0
 25 26  2  0  0  0  0
 26 21  1  0  0  0  0
M  END
>  <MODEL>
2

>  <REMARK>
 VINA RESULT:    -7.428      2.992      4.909
 INTER + INTRA:         -11.846
 INTER:                 -10.503
 INTRA:                  -1.343
 UNBOUND:                -0.944
  Name = CHEMBL1883347
  11 active torsions:
  status: ('A' for Active; 'I' for Inactive)
    1  A    between atoms: C_1  and  O_2
    2  A    between atoms: O_2  and  C_3
    3  A    between atoms: C_3  and  C_5
    4  A    between atoms: C_7  and  C_8
    5  A    between atoms: C_8  and  N_9
    6  A    between atoms: C_10  and  C_12
    7  A    between atoms: C_12  and  C_13
    8  A    between atoms: C_13  and  C_14
    9  A    between atoms: C_13  and  C_15
   10  A    between atoms: C_23  and  O_24
   11  A    between atoms: O_24  and  C_25
                            x       y       z     vdW  Elec       q    Type
                         _______ _______ _______ _____ _____    ______ ____

>  <TORSDO>
F 8

>  <SCORE>
-7.428

>  <RMSD_LB>
2.992

>  <RMSD_UB>
4.909

$$$$
CHEMBL1883347
 OpenBabel10172500263D

 26 27  0  0  1  0  0  0  0  0999 V2000
  144.2020  140.5760  149.8670 C   0  0  0  0  0  2  0  0  0  0  0  0
  145.8740  140.2460  153.3040 C   0  0  0  0  0  0  0  0  0  0  0  0
  145.1540  139.9550  152.1230 C   0  0  0  0  0  3  0  0  0  0  0  0
  145.0710  140.8700  151.0650 C   0  0  0  0  0  0  0  0  0  0  0  0
  145.7320  142.0930  151.1920 C   0  0  0  0  0  3  0  0  0  0  0  0
  146.4690  142.3800  152.3470 C   0  0  0  0  0  3  0  0  0  0  0  0
  146.5610  141.4650  153.4070 C   0  0  0  0  0  0  0  0  0  0  0  0
  145.7170  139.2940  154.4340 C   0  0  0  0  0  0  0  0  0  0  0  0
  144.7520  139.2420  155.1790 O   0  0  0  0  0  0  0  0  0  0  0  0
  147.4840  138.4640  155.7360 C   0  0  0  0  0  1  0  0  0  0  0  0
  146.7940  138.4680  154.4830 O   0  0  0  0  0  0  0  0  0  0  0  0
  147.2780  141.9520  154.4650 O   0  0  0  0  0  0  0  0  0  0  0  0
  148.6980  141.8790  154.3930 C   0  0  0  0  0  1  0  0  0  0  0  0
  142.9230  140.0320  150.2550 N   0  0  0  0  0  0  0  0  0  0  0  0
  142.1370  139.3140  149.3820 C   0  0  0  0  0  0  0  0  0  0  0  0
  142.4490  139.0850  148.2190 O   0  0  0  0  0  0  0  0  0  0  0  0
  142.6020  140.1790  151.1730 H   0  0  0  0  0  0  0  0  0  0  0  0
  140.8220  138.8710  149.9910 C   0  0  0  0  0  2  0  0  0  0  0  0
  140.9380  137.5550  150.7770 C   0  0  1  0  0  3  0  0  0  0  0  0
  142.3030  136.8820  150.5730 C   0  0  0  0  0  1  0  0  0  0  0  0
  140.6880  137.8020  152.2590 C   0  0  0  0  0  0  0  0  0  0  0  0
  141.7650  137.8410  153.1590 C   0  0  0  0  0  3  0  0  0  0  0  0
  141.5450  138.0550  154.5190 C   0  0  0  0  0  3  0  0  0  0  0  0
  140.2510  138.2320  155.0040 C   0  0  0  0  0  3  0  0  0  0  0  0
  139.1710  138.1990  154.1230 C   0  0  0  0  0  3  0  0  0  0  0  0
  139.3880  137.9900  152.7610 C   0  0  0  0  0  3  0  0  0  0  0  0
  1 14  1  0  0  0  0
  1  4  1  0  0  0  0
  2  7  1  0  0  0  0
  2  8  1  0  0  0  0
  3  2  2  0  0  0  0
  4  5  2  0  0  0  0
  4  3  1  0  0  0  0
  5  6  1  0  0  0  0
  6  7  2  0  0  0  0
  7 12  1  0  0  0  0
  8 11  1  0  0  0  0
  8  9  2  0  0  0  0
 11 10  1  0  0  0  0
 13 12  1  0  0  0  0
 14 17  1  0  0  0  0
 15 18  1  0  0  0  0
 15 14  1  0  0  0  0
 16 15  2  0  0  0  0
 18 19  1  0  0  0  0
 19 20  1  1  0  0  0
 19 21  1  0  0  0  0
 21 26  2  0  0  0  0
 21 22  1  0  0  0  0
 22 23  2  0  0  0  0
 23 24  1  0  0  0  0
 25 24  2  0  0  0  0
 26 25  1  0  0  0  0
M  END
>  <MODEL>
3

>  <REMARK>
 VINA RESULT:    -7.353      2.796      7.580
 INTER + INTRA:         -11.736
 INTER:                 -10.586
 INTRA:                  -1.150
 UNBOUND:                -0.944
  Name = CHEMBL1883347
  11 active torsions:
  status: ('A' for Active; 'I' for Inactive)
    1  A    between atoms: C_1  and  O_2
    2  A    between atoms: O_2  and  C_3
    3  A    between atoms: C_3  and  C_5
    4  A    between atoms: C_7  and  C_8
    5  A    between atoms: C_8  and  N_9
    6  A    between atoms: C_10  and  C_12
    7  A    between atoms: C_12  and  C_13
    8  A    between atoms: C_13  and  C_14
    9  A    between atoms: C_13  and  C_15
   10  A    between atoms: C_23  and  O_24
   11  A    between atoms: O_24  and  C_25
                            x       y       z     vdW  Elec       q    Type
                         _______ _______ _______ _____ _____    ______ ____

>  <TORSDO>
F 8

>  <SCORE>
-7.353

>  <RMSD_LB>
2.796

>  <RMSD_UB>
7.580

$$$$
CHEMBL1883347
 OpenBabel10172500263D

 26 27  0  0  1  0  0  0  0  0999 V2000
  142.9980  138.0700  153.8250 C   0  0  0  0  0  2  0  0  0  0  0  0
  142.4000  136.9210  150.2140 C   0  0  0  0  0  0  0  0  0  0  0  0
  143.0230  137.2150  151.4480 C   0  0  0  0  0  3  0  0  0  0  0  0
  142.2900  137.6580  152.5580 C   0  0  0  0  0  0  0  0  0  0  0  0
  140.9070  137.7980  152.4260 C   0  0  0  0  0  3  0  0  0  0  0  0
  140.2790  137.4850  151.2160 C   0  0  0  0  0  3  0  0  0  0  0  0
  141.0060  137.0340  150.1040 C   0  0  0  0  0  0  0  0  0  0  0  0
  143.2970  136.6650  149.0570 C   0  0  0  0  0  0  0  0  0  0  0  0
  143.4010  137.3850  148.0780 O   0  0  0  0  0  0  0  0  0  0  0  0
  145.3820  135.6020  148.8860 C   0  0  0  0  0  1  0  0  0  0  0  0
  144.0090  135.5290  149.2790 O   0  0  0  0  0  0  0  0  0  0  0  0
  140.2190  136.8370  149.0020 O   0  0  0  0  0  0  0  0  0  0  0  0
  139.0760  136.0020  149.1470 C   0  0  0  0  0  1  0  0  0  0  0  0
  144.3760  138.4200  153.5790 N   0  0  0  0  0  0  0  0  0  0  0  0
  145.0460  139.3450  154.3470 C   0  0  0  0  0  0  0  0  0  0  0  0
  144.5350  139.9450  155.2860 O   0  0  0  0  0  0  0  0  0  0  0  0
  144.8530  137.9830  152.8370 H   0  0  0  0  0  0  0  0  0  0  0  0
  146.4700  139.5820  153.8870 C   0  0  0  0  0  2  0  0  0  0  0  0
  146.8830  141.0620  153.9470 C   0  0  1  0  0  3  0  0  0  0  0  0
  148.2790  141.2440  154.5600 C   0  0  0  0  0  1  0  0  0  0  0  0
  146.8330  141.6800  152.5570 C   0  0  0  0  0  0  0  0  0  0  0  0
  148.0150  141.8590  151.8210 C   0  0  0  0  0  3  0  0  0  0  0  0
  147.9810  142.4350  150.5520 C   0  0  0  0  0  3  0  0  0  0  0  0
  146.7700  142.8420  149.9960 C   0  0  0  0  0  3  0  0  0  0  0  0
  145.5870  142.6680  150.7110 C   0  0  0  0  0  3  0  0  0  0  0  0
  145.6170  142.0880  151.9790 C   0  0  0  0  0  3  0  0  0  0  0  0
  2  3  1  0  0  0  0
  3  4  2  0  0  0  0
  4  1  1  0  0  0  0
  5  4  1  0  0  0  0
  6  5  2  0  0  0  0
  7  2  2  0  0  0  0
  7  6  1  0  0  0  0
  8 11  1  0  0  0  0
  8  2  1  0  0  0  0
  9  8  2  0  0  0  0
 10 11  1  0  0  0  0
 12 13  1  0  0  0  0
 12  7  1  0  0  0  0
 14  1  1  0  0  0  0
 14 15  1  0  0  0  0
 15 16  2  0  0  0  0
 17 14  1  0  0  0  0
 18 19  1  0  0  0  0
 18 15  1  0  0  0  0
 19 20  1  6  0  0  0
 21 19  1  0  0  0  0
 22 21  2  0  0  0  0
 23 22  1  0  0  0  0
 24 23  2  0  0  0  0
 24 25  1  0  0  0  0
 25 26  2  0  0  0  0
 26 21  1  0  0  0  0
M  END
>  <MODEL>
4

>  <REMARK>
 VINA RESULT:    -7.311      2.787      4.625
 INTER + INTRA:         -11.674
 INTER:                 -10.638
 INTRA:                  -1.036
 UNBOUND:                -0.944
  Name = CHEMBL1883347
  11 active torsions:
  status: ('A' for Active; 'I' for Inactive)
    1  A    between atoms: C_1  and  O_2
    2  A    between atoms: O_2  and  C_3
    3  A    between atoms: C_3  and  C_5
    4  A    between atoms: C_7  and  C_8
    5  A    between atoms: C_8  and  N_9
    6  A    between atoms: C_10  and  C_12
    7  A    between atoms: C_12  and  C_13
    8  A    between atoms: C_13  and  C_14
    9  A    between atoms: C_13  and  C_15
   10  A    between atoms: C_23  and  O_24
   11  A    between atoms: O_24  and  C_25
                            x       y       z     vdW  Elec       q    Type
                         _______ _______ _______ _____ _____    ______ ____

>  <TORSDO>
F 8

>  <SCORE>
-7.311

>  <RMSD_LB>
2.787

>  <RMSD_UB>
4.625

$$$$
CHEMBL1883347
 OpenBabel10172500263D

 26 27  0  0  1  0  0  0  0  0999 V2000
  142.8630  138.1410  153.6850 C   0  0  0  0  0  2  0  0  0  0  0  0
  140.1040  137.7550  151.0470 C   0  0  0  0  0  0  0  0  0  0  0  0
  140.8110  138.1310  152.2120 C   0  0  0  0  0  3  0  0  0  0  0  0
  142.1680  137.8260  152.3840 C   0  0  0  0  0  0  0  0  0  0  0  0
  142.8280  137.1420  151.3610 C   0  0  0  0  0  3  0  0  0  0  0  0
  142.1440  136.7880  150.1930 C   0  0  0  0  0  3  0  0  0  0  0  0
  140.7860  137.0970  150.0130 C   0  0  0  0  0  0  0  0  0  0  0  0
  138.6300  137.9430  151.0700 C   0  0  0  0  0  0  0  0  0  0  0  0
  137.9860  138.5370  150.2210 O   0  0  0  0  0  0  0  0  0  0  0  0
  136.9000  136.6010  151.9120 C   0  0  0  0  0  1  0  0  0  0  0  0
  138.1110  137.3200  152.1600 O   0  0  0  0  0  0  0  0  0  0  0  0
  140.2870  136.6180  148.8320 O   0  0  0  0  0  0  0  0  0  0  0  0
  140.3980  135.2210  148.5840 C   0  0  0  0  0  1  0  0  0  0  0  0
  144.2650  138.4200  153.4880 N   0  0  0  0  0  0  0  0  0  0  0  0
  144.9510  139.3190  154.2730 C   0  0  0  0  0  0  0  0  0  0  0  0
  144.4360  139.9530  155.1870 O   0  0  0  0  0  0  0  0  0  0  0  0
  144.7470  137.9510  152.7690 H   0  0  0  0  0  0  0  0  0  0  0  0
  146.4010  139.4800  153.8660 C   0  0  0  0  0  2  0  0  0  0  0  0
  146.8970  140.9310  153.9690 C   0  0  1  0  0  3  0  0  0  0  0  0
  148.3090  141.0140  154.5670 C   0  0  0  0  0  1  0  0  0  0  0  0
  146.8640  141.5980  152.6010 C   0  0  0  0  0  0  0  0  0  0  0  0
  148.0520  141.7710  151.8720 C   0  0  0  0  0  3  0  0  0  0  0  0
  148.0330  142.3910  150.6230 C   0  0  0  0  0  3  0  0  0  0  0  0
  146.8340  142.8480  150.0820 C   0  0  0  0  0  3  0  0  0  0  0  0
  145.6460  142.6810  150.7910 C   0  0  0  0  0  3  0  0  0  0  0  0
  145.6600  142.0570  152.0380 C   0  0  0  0  0  3  0  0  0  0  0  0
  2  8  1  0  0  0  0
  2  3  1  0  0  0  0
  3  4  2  0  0  0  0
  4  1  1  0  0  0  0
  5  4  1  0  0  0  0
  6  5  2  0  0  0  0
  7  6  1  0  0  0  0
  7  2  2  0  0  0  0
  8 11  1  0  0  0  0
  9  8  2  0  0  0  0
 10 11  1  0  0  0  0
 12  7  1  0  0  0  0
 13 12  1  0  0  0  0
 14  1  1  0  0  0  0
 14 15  1  0  0  0  0
 15 16  2  0  0  0  0
 17 14  1  0  0  0  0
 18 19  1  0  0  0  0
 18 15  1  0  0  0  0
 19 20  1  6  0  0  0
 21 19  1  0  0  0  0
 22 21  2  0  0  0  0
 23 22  1  0  0  0  0
 24 23  2  0  0  0  0
 24 25  1  0  0  0  0
 25 26  2  0  0  0  0
 26 21  1  0  0  0  0
M  END
>  <MODEL>
5

>  <REMARK>
 VINA RESULT:    -7.279      2.077      3.248
 INTER + INTRA:         -11.628
 INTER:                 -10.776
 INTRA:                  -0.852
 UNBOUND:                -0.944
  Name = CHEMBL1883347
  11 active torsions:
  status: ('A' for Active; 'I' for Inactive)
    1  A    between atoms: C_1  and  O_2
    2  A    between atoms: O_2  and  C_3
    3  A    between atoms: C_3  and  C_5
    4  A    between atoms: C_7  and  C_8
    5  A    between atoms: C_8  and  N_9
    6  A    between atoms: C_10  and  C_12
    7  A    between atoms: C_12  and  C_13
    8  A    between atoms: C_13  and  C_14
    9  A    between atoms: C_13  and  C_15
   10  A    between atoms: C_23  and  O_24
   11  A    between atoms: O_24  and  C_25
                            x       y       z     vdW  Elec       q    Type
                         _______ _______ _______ _____ _____    ______ ____

>  <TORSDO>
F 8

>  <SCORE>
-7.279

>  <RMSD_LB>
2.077

>  <RMSD_UB>
3.248

$$$$
CHEMBL1883347
 OpenBabel10172500263D

 26 27  0  0  1  0  0  0  0  0999 V2000
  142.5030  138.7260  154.4060 C   0  0  0  0  0  2  0  0  0  0  0  0
  138.7310  138.1550  154.0080 C   0  0  0  0  0  0  0  0  0  0  0  0
  139.9900  138.5120  154.5410 C   0  0  0  0  0  3  0  0  0  0  0  0
  141.1620  138.4470  153.7750 C   0  0  0  0  0  0  0  0  0  0  0  0
  141.0630  138.0270  152.4470 C   0  0  0  0  0  3  0  0  0  0  0  0
  139.8180  137.6960  151.9030 C   0  0  0  0  0  3  0  0  0  0  0  0
  138.6400  137.7650  152.6630 C   0  0  0  0  0  0  0  0  0  0  0  0
  137.6000  138.0620  154.9680 C   0  0  0  0  0  0  0  0  0  0  0  0
  136.9930  139.0130  155.4300 O   0  0  0  0  0  0  0  0  0  0  0  0
  136.8390  136.4920  156.5370 C   0  0  0  0  0  1  0  0  0  0  0  0
  137.3260  136.7550  155.2190 O   0  0  0  0  0  0  0  0  0  0  0  0
  137.5370  137.3490  151.9690 O   0  0  0  0  0  0  0  0  0  0  0  0
  137.7130  136.9790  150.6060 C   0  0  0  0  0  1  0  0  0  0  0  0
  143.5420  138.8670  153.4140 N   0  0  0  0  0  0  0  0  0  0  0  0
  144.5590  137.9490  153.2830 C   0  0  0  0  0  0  0  0  0  0  0  0
  144.6710  136.9530  153.9890 O   0  0  0  0  0  0  0  0  0  0  0  0
  143.5220  139.6450  152.8120 H   0  0  0  0  0  0  0  0  0  0  0  0
  145.5560  138.3150  152.2020 C   0  0  0  0  0  2  0  0  0  0  0  0
  146.9130  138.7660  152.7640 C   0  0  1  0  0  3  0  0  0  0  0  0
  147.9960  137.6930  152.5820 C   0  0  0  0  0  1  0  0  0  0  0  0
  147.3480  140.0700  152.1090 C   0  0  0  0  0  0  0  0  0  0  0  0
  146.5900  140.6210  151.0630 C   0  0  0  0  0  3  0  0  0  0  0  0
  146.9870  141.8080  150.4490 C   0  0  0  0  0  3  0  0  0  0  0  0
  148.1440  142.4630  150.8640 C   0  0  0  0  0  3  0  0  0  0  0  0
  148.9060  141.9310  151.9020 C   0  0  0  0  0  3  0  0  0  0  0  0
  148.5090  140.7470  152.5230 C   0  0  0  0  0  3  0  0  0  0  0  0
  2  3  1  0  0  0  0
  2  8  1  0  0  0  0
  4  1  1  0  0  0  0
  4  3  2  0  0  0  0
  5  4  1  0  0  0  0
  6  5  2  0  0  0  0
  6  7  1  0  0  0  0
  7  2  2  0  0  0  0
  8 11  1  0  0  0  0
  8  9  2  0  0  0  0
 11 10  1  0  0  0  0
 12  7  1  0  0  0  0
 13 12  1  0  0  0  0
 14  1  1  0  0  0  0
 15 14  1  0  0  0  0
 15 16  2  0  0  0  0
 17 14  1  0  0  0  0
 18 19  1  0  0  0  0
 18 15  1  0  0  0  0
 19 20  1  6  0  0  0
 21 26  1  0  0  0  0
 21 19  1  0  0  0  0
 22 21  2  0  0  0  0
 23 24  2  0  0  0  0
 23 22  1  0  0  0  0
 24 25  1  0  0  0  0
 25 26  2  0  0  0  0
M  END
>  <MODEL>
6

>  <REMARK>
 VINA RESULT:    -7.096      1.607      2.305
 INTER + INTRA:         -11.359
 INTER:                 -10.523
 INTRA:                  -0.836
 UNBOUND:                -0.944
  Name = CHEMBL1883347
  11 active torsions:
  status: ('A' for Active; 'I' for Inactive)
    1  A    between atoms: C_1  and  O_2
    2  A    between atoms: O_2  and  C_3
    3  A    between atoms: C_3  and  C_5
    4  A    between atoms: C_7  and  C_8
    5  A    between atoms: C_8  and  N_9
    6  A    between atoms: C_10  and  C_12
    7  A    between atoms: C_12  and  C_13
    8  A    between atoms: C_13  and  C_14
    9  A    between atoms: C_13  and  C_15
   10  A    between atoms: C_23  and  O_24
   11  A    between atoms: O_24  and  C_25
                            x       y       z     vdW  Elec       q    Type
                         _______ _______ _______ _____ _____    ______ ____

>  <TORSDO>
F 8

>  <SCORE>
-7.096

>  <RMSD_LB>
1.607

>  <RMSD_UB>
2.305

$$$$
CHEMBL1883347
 OpenBabel10172500263D

 26 27  0  0  1  0  0  0  0  0999 V2000
  143.7250  137.0290  150.7480 C   0  0  0  0  0  2  0  0  0  0  0  0
  140.5560  137.8630  152.7440 C   0  0  0  0  0  0  0  0  0  0  0  0
  141.4270  137.4400  151.7140 C   0  0  0  0  0  3  0  0  0  0  0  0
  142.8140  137.3750  151.9010 C   0  0  0  0  0  0  0  0  0  0  0  0
  143.3330  137.7320  153.1470 C   0  0  0  0  0  3  0  0  0  0  0  0
  142.4770  138.1270  154.1800 C   0  0  0  0  0  3  0  0  0  0  0  0
  141.0860  138.1870  154.0010 C   0  0  0  0  0  0  0  0  0  0  0  0
  139.1370  138.0920  152.3670 C   0  0  0  0  0  0  0  0  0  0  0  0
  138.1730  137.8160  153.0620 O   0  0  0  0  0  0  0  0  0  0  0  0
  138.0630  138.1850  150.2830 C   0  0  0  0  0  1  0  0  0  0  0  0
  139.0840  138.6890  151.1470 O   0  0  0  0  0  0  0  0  0  0  0  0
  140.4300  138.6490  155.1100 O   0  0  0  0  0  0  0  0  0  0  0  0
  140.3190  137.7730  156.2260 C   0  0  0  0  0  1  0  0  0  0  0  0
  145.0550  137.5540  150.9410 N   0  0  0  0  0  0  0  0  0  0  0  0
  146.1440  136.7360  151.1440 C   0  0  0  0  0  0  0  0  0  0  0  0
  146.0760  135.5130  151.1820 O   0  0  0  0  0  0  0  0  0  0  0  0
  145.1880  138.5290  150.9280 H   0  0  0  0  0  0  0  0  0  0  0  0
  147.4330  137.5030  151.3580 C   0  0  0  0  0  2  0  0  0  0  0  0
  147.5940  138.0180  152.7970 C   0  0  1  0  0  3  0  0  0  0  0  0
  148.9910  137.7220  153.3600 C   0  0  0  0  0  1  0  0  0  0  0  0
  147.3060  139.5120  152.8570 C   0  0  0  0  0  0  0  0  0  0  0  0
  146.3180  140.0060  153.7240 C   0  0  0  0  0  3  0  0  0  0  0  0
  146.0390  141.3710  153.7770 C   0  0  0  0  0  3  0  0  0  0  0  0
  146.7390  142.2650  152.9690 C   0  0  0  0  0  3  0  0  0  0  0  0
  147.7250  141.7910  152.1060 C   0  0  0  0  0  3  0  0  0  0  0  0
  148.0100  140.4260  152.0540 C   0  0  0  0  0  3  0  0  0  0  0  0
  1 14  1  0  0  0  0
  1  4  1  0  0  0  0
  2  7  1  0  0  0  0
  3  4  1  0  0  0  0
  3  2  2  0  0  0  0
  4  5  2  0  0  0  0
  5  6  1  0  0  0  0
  7  6  2  0  0  0  0
  7 12  1  0  0  0  0
  8  2  1  0  0  0  0
  8  9  2  0  0  0  0
 10 11  1  0  0  0  0
 11  8  1  0  0  0  0
 12 13  1  0  0  0  0
 14 15  1  0  0  0  0
 15 16  2  0  0  0  0
 15 18  1  0  0  0  0
 17 14  1  0  0  0  0
 18 19  1  0  0  0  0
 19 21  1  0  0  0  0
 19 20  1  6  0  0  0
 21 22  1  0  0  0  0
 22 23  2  0  0  0  0
 24 23  1  0  0  0  0
 25 24  2  0  0  0  0
 26 25  1  0  0  0  0
 26 21  2  0  0  0  0
M  END
>  <MODEL>
7

>  <REMARK>
 VINA RESULT:    -7.070      2.326      3.737
 INTER + INTRA:         -11.321
 INTER:                 -10.058
 INTRA:                  -1.263
 UNBOUND:                -0.944
  Name = CHEMBL1883347
  11 active torsions:
  status: ('A' for Active; 'I' for Inactive)
    1  A    between atoms: C_1  and  O_2
    2  A    between atoms: O_2  and  C_3
    3  A    between atoms: C_3  and  C_5
    4  A    between atoms: C_7  and  C_8
    5  A    between atoms: C_8  and  N_9
    6  A    between atoms: C_10  and  C_12
    7  A    between atoms: C_12  and  C_13
    8  A    between atoms: C_13  and  C_14
    9  A    between atoms: C_13  and  C_15
   10  A    between atoms: C_23  and  O_24
   11  A    between atoms: O_24  and  C_25
                            x       y       z     vdW  Elec       q    Type
                         _______ _______ _______ _____ _____    ______ ____

>  <TORSDO>
F 8

>  <SCORE>
-7.070

>  <RMSD_LB>
2.326

>  <RMSD_UB>
3.737

$$$$
CHEMBL1883347
 OpenBabel10172500263D

 26 27  0  0  1  0  0  0  0  0999 V2000
  138.9980  138.3830  151.2890 C   0  0  0  0  0  2  0  0  0  0  0  0
  136.5300  136.2820  153.3410 C   0  0  0  0  0  0  0  0  0  0  0  0
  137.2630  136.8260  152.2620 C   0  0  0  0  0  3  0  0  0  0  0  0
  138.3100  137.7350  152.4650 C   0  0  0  0  0  0  0  0  0  0  0  0
  138.6330  138.0930  153.7750 C   0  0  0  0  0  3  0  0  0  0  0  0
  137.9300  137.5400  154.8510 C   0  0  0  0  0  3  0  0  0  0  0  0
  136.8840  136.6240  154.6540 C   0  0  0  0  0  0  0  0  0  0  0  0
  135.3140  135.5000  152.9950 C   0  0  0  0  0  0  0  0  0  0  0  0
  135.2380  134.2820  153.0010 O   0  0  0  0  0  0  0  0  0  0  0  0
  133.5910  136.0540  151.5020 C   0  0  0  0  0  1  0  0  0  0  0  0
  134.2940  136.3510  152.7110 O   0  0  0  0  0  0  0  0  0  0  0  0
  136.2880  136.2430  155.8250 O   0  0  0  0  0  0  0  0  0  0  0  0
  137.1330  135.8680  156.9070 C   0  0  0  0  0  1  0  0  0  0  0  0
  140.2310  139.0230  151.6770 N   0  0  0  0  0  0  0  0  0  0  0  0
  141.4440  138.3740  151.6200 C   0  0  0  0  0  0  0  0  0  0  0  0
  141.5750  137.2140  151.2460 O   0  0  0  0  0  0  0  0  0  0  0  0
  140.2050  139.9550  151.9930 H   0  0  0  0  0  0  0  0  0  0  0  0
  142.5990  139.2240  152.1080 C   0  0  0  0  0  2  0  0  0  0  0  0
  143.6200  139.5420  151.0030 C   0  0  1  0  0  3  0  0  0  0  0  0
  142.9460  140.0930  149.7390 C   0  0  0  0  0  1  0  0  0  0  0  0
  144.6620  140.5260  151.5170 C   0  0  0  0  0  0  0  0  0  0  0  0
  145.1180  141.5660  150.6910 C   0  0  0  0  0  3  0  0  0  0  0  0
  146.0800  142.4650  151.1480 C   0  0  0  0  0  3  0  0  0  0  0  0
  146.6050  142.3420  152.4320 C   0  0  0  0  0  3  0  0  0  0  0  0
  146.1620  141.3170  153.2660 C   0  0  0  0  0  3  0  0  0  0  0  0
  145.1950  140.4190  152.8140 C   0  0  0  0  0  3  0  0  0  0  0  0
  1 14  1  0  0  0  0
  1  4  1  0  0  0  0
  2  7  1  0  0  0  0
  3  4  1  0  0  0  0
  3  2  2  0  0  0  0
  4  5  2  0  0  0  0
  5  6  1  0  0  0  0
  7  6  2  0  0  0  0
  7 12  1  0  0  0  0
  8  9  2  0  0  0  0
  8  2  1  0  0  0  0
 10 11  1  0  0  0  0
 11  8  1  0  0  0  0
 12 13  1  0  0  0  0
 14 17  1  0  0  0  0
 15 14  1  0  0  0  0
 15 18  1  0  0  0  0
 16 15  2  0  0  0  0
 19 20  1  6  0  0  0
 19 21  1  0  0  0  0
 19 18  1  0  0  0  0
 21 26  1  0  0  0  0
 22 23  1  0  0  0  0
 22 21  2  0  0  0  0
 23 24  2  0  0  0  0
 24 25  1  0  0  0  0
 26 25  2  0  0  0  0
M  END
>  <MODEL>
8

>  <REMARK>
 VINA RESULT:    -6.957      2.247      4.031
 INTER + INTRA:         -11.154
 INTER:                 -10.356
 INTRA:                  -0.799
 UNBOUND:                -0.944
  Name = CHEMBL1883347
  11 active torsions:
  status: ('A' for Active; 'I' for Inactive)
    1  A    between atoms: C_1  and  O_2
    2  A    between atoms: O_2  and  C_3
    3  A    between atoms: C_3  and  C_5
    4  A    between atoms: C_7  and  C_8
    5  A    between atoms: C_8  and  N_9
    6  A    between atoms: C_10  and  C_12
    7  A    between atoms: C_12  and  C_13
    8  A    between atoms: C_13  and  C_14
    9  A    between atoms: C_13  and  C_15
   10  A    between atoms: C_23  and  O_24
   11  A    between atoms: O_24  and  C_25
                            x       y       z     vdW  Elec       q    Type
                         _______ _______ _______ _____ _____    ______ ____

>  <TORSDO>
F 8

>  <SCORE>
-6.957

>  <RMSD_LB>
2.247

>  <RMSD_UB>
4.031

$$$$
CHEMBL1883347
 OpenBabel10172500263D

 26 27  0  0  1  0  0  0  0  0999 V2000
  144.2730  136.7760  150.5610 C   0  0  0  0  0  2  0  0  0  0  0  0
  141.7950  138.0660  153.1900 C   0  0  0  0  0  0  0  0  0  0  0  0
  142.9910  137.7580  152.5030 C   0  0  0  0  0  3  0  0  0  0  0  0
  142.9830  137.1960  151.2200 C   0  0  0  0  0  0  0  0  0  0  0  0
  141.7500  136.9490  150.6120 C   0  0  0  0  0  3  0  0  0  0  0  0
  140.5600  137.2730  151.2730 C   0  0  0  0  0  3  0  0  0  0  0  0
  140.5630  137.8430  152.5560 C   0  0  0  0  0  0  0  0  0  0  0  0
  141.9250  138.4580  154.6170 C   0  0  0  0  0  0  0  0  0  0  0  0
  141.4680  137.8340  155.5610 O   0  0  0  0  0  0  0  0  0  0  0  0
  143.1530  139.8820  156.0210 C   0  0  0  0  0  1  0  0  0  0  0  0
  142.6640  139.5940  154.7080 O   0  0  0  0  0  0  0  0  0  0  0  0
  139.3020  138.0340  153.0530 O   0  0  0  0  0  0  0  0  0  0  0  0
  138.8600  139.3740  153.2390 C   0  0  0  0  0  1  0  0  0  0  0  0
  145.2790  137.8070  150.6480 N   0  0  0  0  0  0  0  0  0  0  0  0
  145.3940  138.8000  149.7020 C   0  0  0  0  0  0  0  0  0  0  0  0
  144.6690  138.8880  148.7180 O   0  0  0  0  0  0  0  0  0  0  0  0
  145.9020  137.8010  151.4100 H   0  0  0  0  0  0  0  0  0  0  0  0
  146.5400  139.7530  149.9760 C   0  0  0  0  0  2  0  0  0  0  0  0
  146.0900  141.0520  150.6650 C   0  0  1  0  0  3  0  0  0  0  0  0
  144.6360  140.9700  151.1500 C   0  0  0  0  0  1  0  0  0  0  0  0
  147.0170  141.3800  151.8270 C   0  0  0  0  0  0  0  0  0  0  0  0
  146.5010  141.5010  153.1280 C   0  0  0  0  0  3  0  0  0  0  0  0
  147.3400  141.8130  154.1970 C   0  0  0  0  0  3  0  0  0  0  0  0
  148.7030  142.0100  153.9880 C   0  0  0  0  0  3  0  0  0  0  0  0
  149.2320  141.8900  152.7050 C   0  0  0  0  0  3  0  0  0  0  0  0
  148.3960  141.5730  151.6330 C   0  0  0  0  0  3  0  0  0  0  0  0
  1 14  1  0  0  0  0
  1  4  1  0  0  0  0
  2  8  1  0  0  0  0
  3  2  2  0  0  0  0
  4  3  1  0  0  0  0
  5  4  2  0  0  0  0
  5  6  1  0  0  0  0
  6  7  2  0  0  0  0
  7 12  1  0  0  0  0
  7  2  1  0  0  0  0
  8 11  1  0  0  0  0
  8  9  2  0  0  0  0
 11 10  1  0  0  0  0
 12 13  1  0  0  0  0
 14 17  1  0  0  0  0
 15 18  1  0  0  0  0
 15 14  1  0  0  0  0
 16 15  2  0  0  0  0
 18 19  1  0  0  0  0
 19 20  1  1  0  0  0
 19 21  1  0  0  0  0
 21 22  1  0  0  0  0
 22 23  2  0  0  0  0
 24 23  1  0  0  0  0
 25 24  2  0  0  0  0
 26 21  2  0  0  0  0
 26 25  1  0  0  0  0
M  END
>  <MODEL>
9

>  <REMARK>
 VINA RESULT:    -6.924      1.918      2.936
 INTER + INTRA:         -11.107
 INTER:                 -10.162
 INTRA:                  -0.944
 UNBOUND:                -0.944
  Name = CHEMBL1883347
  11 active torsions:
  status: ('A' for Active; 'I' for Inactive)
    1  A    between atoms: C_1  and  O_2
    2  A    between atoms: O_2  and  C_3
    3  A    between atoms: C_3  and  C_5
    4  A    between atoms: C_7  and  C_8
    5  A    between atoms: C_8  and  N_9
    6  A    between atoms: C_10  and  C_12
    7  A    between atoms: C_12  and  C_13
    8  A    between atoms: C_13  and  C_14
    9  A    between atoms: C_13  and  C_15
   10  A    between atoms: C_23  and  O_24
   11  A    between atoms: O_24  and  C_25
                            x       y       z     vdW  Elec       q    Type
                         _______ _______ _______ _____ _____    ______ ____

>  <TORSDO>
F 8

>  <SCORE>
-6.924

>  <RMSD_LB>
1.918

>  <RMSD_UB>
2.936

$$$$
