CHEMBL1732239
 OpenBabel10162523483D

 31 32  0  0  0  0  0  0  0  0999 V2000
  132.7520  136.3680  149.9900 C   0  0  0  0  0  2  0  0  0  0  0  0
  133.8640  136.3530  148.9270 C   0  0  0  0  0  0  0  0  0  0  0  0
  133.8330  135.5400  148.0150 O   0  0  0  0  0  0  0  0  0  0  0  0
  134.8690  137.2730  149.0820 N   0  0  0  0  0  0  0  0  0  0  0  0
  134.8500  137.8720  149.8620 H   0  0  0  0  0  0  0  0  0  0  0  0
  135.9870  137.3920  148.1080 C   0  0  0  0  0  2  0  0  0  0  0  0
  137.3590  137.4520  148.7420 C   0  0  0  0  0  0  0  0  0  0  0  0
  138.0210  136.2700  149.0160 C   0  0  0  0  0  3  0  0  0  0  0  0
  139.3460  136.3030  149.4910 C   0  0  0  0  0  3  0  0  0  0  0  0
  140.1280  137.4090  149.7400 C   0  0  0  0  0  0  0  0  0  0  0  0
  139.4940  138.5940  149.3950 C   0  0  0  0  0  0  0  0  0  0  0  0
  138.1300  138.6200  148.9350 C   0  0  0  0  0  3  0  0  0  0  0  0
  141.3840  137.4760  150.2610 O   0  0  0  0  0  0  0  0  0  0  0  0
  141.9540  137.8400  151.5140 C   0  0  0  0  0  1  0  0  0  0  0  0
  140.1640  139.8040  149.4090 O   0  0  0  0  0  0  0  0  0  0  0  0
  139.5720  140.7670  150.2960 C   0  0  0  0  0  1  0  0  0  0  0  0
  133.1450  136.2400  151.3490 O   0  0  0  0  0  0  0  0  0  0  0  0
  133.4540  134.9730  151.7750 C   0  0  0  0  0  0  0  0  0  0  0  0
  133.2370  133.9570  151.1600 O   0  0  0  0  0  0  0  0  0  0  0  0
  133.9900  135.0750  153.1920 C   0  0  0  0  0  2  0  0  0  0  0  0
  135.5020  134.9330  153.2940 C   0  0  0  0  0  2  0  0  0  0  0  0
  138.1030  138.2200  154.3810 C   0  0  0  0  0  0  0  0  0  0  0  0
  138.0820  137.6750  153.0930 C   0  0  0  0  0  3  0  0  0  0  0  0
  137.1750  136.6820  152.7540 C   0  0  0  0  0  3  0  0  0  0  0  0
  136.2740  136.1720  153.6930 C   0  0  0  0  0  0  0  0  0  0  0  0
  136.2040  136.7670  154.9730 C   0  0  0  0  0  3  0  0  0  0  0  0
  137.0970  137.8030  155.3320 C   0  0  0  0  0  0  0  0  0  0  0  0
  140.3890  139.0630  154.7020 C   0  0  0  0  0  1  0  0  0  0  0  0
  138.9490  139.2930  154.6200 O   0  0  0  0  0  0  0  0  0  0  0  0
  137.0460  138.2870  156.6260 O   0  0  0  0  0  0  0  0  0  0  0  0
  136.8340  137.3710  157.7280 C   0  0  0  0  0  1  0  0  0  0  0  0
  1 17  1  0  0  0  0
  2  4  1  0  0  0  0
  2  1  1  0  0  0  0
  3  2  2  0  0  0  0
  4  5  1  0  0  0  0
  6  7  1  0  0  0  0
  6  4  1  0  0  0  0
  7 12  2  0  0  0  0
  7  8  1  0  0  0  0
  8  9  2  0  0  0  0
  9 10  1  0  0  0  0
 10 13  1  0  0  0  0
 11 15  1  0  0  0  0
 11 10  2  0  0  0  0
 12 11  1  0  0  0  0
 13 14  1  0  0  0  0
 15 16  1  0  0  0  0
 17 18  1  0  0  0  0
 18 20  1  0  0  0  0
 19 18  2  0  0  0  0
 20 21  1  0  0  0  0
 21 25  1  0  0  0  0
 22 29  1  0  0  0  0
 22 27  1  0  0  0  0
 23 22  2  0  0  0  0
 24 23  1  0  0  0  0
 24 25  2  0  0  0  0
 25 26  1  0  0  0  0
 26 27  2  0  0  0  0
 27 30  1  0  0  0  0
 29 28  1  0  0  0  0
 30 31  1  0  0  0  0
M  END
>  <MODEL>
1

>  <REMARK>
 VINA RESULT:    -6.099      0.000      0.000
 INTER + INTRA:         -12.394
 INTER:                 -10.584
 INTRA:                  -1.810
 UNBOUND:                -2.016
  Name = CHEMBL1732239
  16 active torsions:
  status: ('A' for Active; 'I' for Inactive)
    1  A    between atoms: C_1  and  O_2
    2  A    between atoms: O_2  and  C_3
    3  A    between atoms: C_6  and  C_7
    4  A    between atoms: C_7  and  C_8
    5  A    between atoms: C_8  and  C_9
    6  A    between atoms: C_9  and  O_11
    7  A    between atoms: O_11  and  C_12
    8  A    between atoms: C_12  and  C_13
    9  A    between atoms: N_15  and  C_16
   10  A    between atoms: C_16  and  C_17
   11  A    between atoms: C_20  and  O_21
   12  A    between atoms: O_21  and  C_22
   13  A    between atoms: C_23  and  O_24
   14  A    between atoms: O_24  and  C_25
   15  A    between atoms: C_28  and  O_29
   16  A    between atoms: O_29  and  C_30
                            x       y       z     vdW  Elec       q    Type
                         _______ _______ _______ _____ _____    ______ ____

>  <TORSDO>
F 12

>  <SCORE>
-6.099

>  <RMSD_LB>
0.000

>  <RMSD_UB>
0.000

$$$$
CHEMBL1732239
 OpenBabel10162523483D

 31 32  0  0  0  0  0  0  0  0999 V2000
  133.5550  135.9910  151.1900 C   0  0  0  0  0  2  0  0  0  0  0  0
  134.4420  135.2920  152.2340 C   0  0  0  0  0  0  0  0  0  0  0  0
  135.5500  134.8810  151.9230 O   0  0  0  0  0  0  0  0  0  0  0  0
  133.9110  135.1520  153.4900 N   0  0  0  0  0  0  0  0  0  0  0  0
  132.9960  135.4730  153.6590 H   0  0  0  0  0  0  0  0  0  0  0  0
  134.6740  134.5280  154.6040 C   0  0  0  0  0  2  0  0  0  0  0  0
  135.3370  135.5190  155.5350 C   0  0  0  0  0  0  0  0  0  0  0  0
  135.6360  135.1260  156.8260 C   0  0  0  0  0  3  0  0  0  0  0  0
  136.3630  135.9880  157.6700 C   0  0  0  0  0  3  0  0  0  0  0  0
  136.8490  137.2430  157.3810 C   0  0  0  0  0  0  0  0  0  0  0  0
  136.6170  137.6090  156.0620 C   0  0  0  0  0  0  0  0  0  0  0  0
  135.8530  136.7820  155.1670 C   0  0  0  0  0  3  0  0  0  0  0  0
  137.4950  138.1250  158.1930 O   0  0  0  0  0  0  0  0  0  0  0  0
  137.9240  138.1400  159.5490 C   0  0  0  0  0  1  0  0  0  0  0  0
  137.1690  138.7570  155.5230 O   0  0  0  0  0  0  0  0  0  0  0  0
  138.3390  138.5010  154.7280 C   0  0  0  0  0  1  0  0  0  0  0  0
  132.7510  135.1670  150.3570 O   0  0  0  0  0  0  0  0  0  0  0  0
  133.1640  135.0340  149.0550 C   0  0  0  0  0  0  0  0  0  0  0  0
  132.8360  135.7510  148.1410 O   0  0  0  0  0  0  0  0  0  0  0  0
  133.9900  133.7640  148.9550 C   0  0  0  0  0  2  0  0  0  0  0  0
  133.7240  132.9480  147.6980 C   0  0  0  0  0  2  0  0  0  0  0  0
  136.7580  133.6800  144.6960 C   0  0  0  0  0  0  0  0  0  0  0  0
  136.8470  132.6250  145.6090 C   0  0  0  0  0  3  0  0  0  0  0  0
  135.8160  132.3640  146.5010 C   0  0  0  0  0  3  0  0  0  0  0  0
  134.6700  133.1650  146.5370 C   0  0  0  0  0  0  0  0  0  0  0  0
  134.5070  134.1770  145.5650 C   0  0  0  0  0  3  0  0  0  0  0  0
  135.5300  134.4400  144.6250 C   0  0  0  0  0  0  0  0  0  0  0  0
  137.6530  133.0970  142.4830 C   0  0  0  0  0  1  0  0  0  0  0  0
  137.7660  133.8110  143.7520 O   0  0  0  0  0  0  0  0  0  0  0  0
  135.3570  135.5010  143.7550 O   0  0  0  0  0  0  0  0  0  0  0  0
  135.7120  136.8410  144.1760 C   0  0  0  0  0  1  0  0  0  0  0  0
  1  2  1  0  0  0  0
  2  4  1  0  0  0  0
  3  2  2  0  0  0  0
  4  5  1  0  0  0  0
  4  6  1  0  0  0  0
  6  7  1  0  0  0  0
  7  8  1  0  0  0  0
  8  9  2  0  0  0  0
 10  9  1  0  0  0  0
 10 13  1  0  0  0  0
 11 10  2  0  0  0  0
 12  7  2  0  0  0  0
 12 11  1  0  0  0  0
 13 14  1  0  0  0  0
 15 11  1  0  0  0  0
 16 15  1  0  0  0  0
 17  1  1  0  0  0  0
 18 17  1  0  0  0  0
 19 18  2  0  0  0  0
 20 18  1  0  0  0  0
 21 20  1  0  0  0  0
 22 23  1  0  0  0  0
 23 24  2  0  0  0  0
 24 25  1  0  0  0  0
 25 21  1  0  0  0  0
 26 25  2  0  0  0  0
 27 22  2  0  0  0  0
 27 26  1  0  0  0  0
 28 29  1  0  0  0  0
 29 22  1  0  0  0  0
 30 31  1  0  0  0  0
 30 27  1  0  0  0  0
M  END
>  <MODEL>
2

>  <REMARK>
 VINA RESULT:    -6.078      3.602      8.253
 INTER + INTRA:         -12.358
 INTER:                 -11.466
 INTRA:                  -0.892
 UNBOUND:                -2.016
  Name = CHEMBL1732239
  16 active torsions:
  status: ('A' for Active; 'I' for Inactive)
    1  A    between atoms: C_1  and  O_2
    2  A    between atoms: O_2  and  C_3
    3  A    between atoms: C_6  and  C_7
    4  A    between atoms: C_7  and  C_8
    5  A    between atoms: C_8  and  C_9
    6  A    between atoms: C_9  and  O_11
    7  A    between atoms: O_11  and  C_12
    8  A    between atoms: C_12  and  C_13
    9  A    between atoms: N_15  and  C_16
   10  A    between atoms: C_16  and  C_17
   11  A    between atoms: C_20  and  O_21
   12  A    between atoms: O_21  and  C_22
   13  A    between atoms: C_23  and  O_24
   14  A    between atoms: O_24  and  C_25
   15  A    between atoms: C_28  and  O_29
   16  A    between atoms: O_29  and  C_30
                            x       y       z     vdW  Elec       q    Type
                         _______ _______ _______ _____ _____    ______ ____

>  <TORSDO>
F 12

>  <SCORE>
-6.078

>  <RMSD_LB>
3.602

>  <RMSD_UB>
8.253

$$$$
CHEMBL1732239
 OpenBabel10162523483D

 31 32  0  0  0  0  0  0  0  0999 V2000
  135.9930  132.3620  146.9020 C   0  0  0  0  0  2  0  0  0  0  0  0
  136.7580  133.5220  146.2420 C   0  0  0  0  0  0  0  0  0  0  0  0
  136.5200  133.8370  145.0850 O   0  0  0  0  0  0  0  0  0  0  0  0
  137.7060  134.1430  147.0120 N   0  0  0  0  0  0  0  0  0  0  0  0
  137.8720  133.8110  147.9240 H   0  0  0  0  0  0  0  0  0  0  0  0
  138.4950  135.3010  146.5120 C   0  0  0  0  0  2  0  0  0  0  0  0
  139.3950  135.9350  147.5500 C   0  0  0  0  0  0  0  0  0  0  0  0
  140.3340  135.1470  148.1890 C   0  0  0  0  0  3  0  0  0  0  0  0
  141.2630  135.7380  149.0670 C   0  0  0  0  0  3  0  0  0  0  0  0
  141.3800  137.0680  149.4040 C   0  0  0  0  0  0  0  0  0  0  0  0
  140.4880  137.8710  148.7070 C   0  0  0  0  0  0  0  0  0  0  0  0
  139.4970  137.3170  147.8230 C   0  0  0  0  0  3  0  0  0  0  0  0
  142.2210  137.6600  150.2980 O   0  0  0  0  0  0  0  0  0  0  0  0
  142.2070  137.9210  151.6960 C   0  0  0  0  0  1  0  0  0  0  0  0
  140.5530  139.2510  148.7740 O   0  0  0  0  0  0  0  0  0  0  0  0
  139.5570  139.8220  149.6390 C   0  0  0  0  0  1  0  0  0  0  0  0
  134.5820  132.4890  147.0150 O   0  0  0  0  0  0  0  0  0  0  0  0
  134.1250  133.3180  148.0080 C   0  0  0  0  0  0  0  0  0  0  0  0
  133.6850  134.4310  147.8420 O   0  0  0  0  0  0  0  0  0  0  0  0
  134.3910  132.6420  149.3400 C   0  0  0  0  0  2  0  0  0  0  0  0
  133.5940  133.2210  150.5000 C   0  0  0  0  0  2  0  0  0  0  0  0
  135.4030  135.7820  153.4880 C   0  0  0  0  0  0  0  0  0  0  0  0
  134.4330  134.8260  153.8080 C   0  0  0  0  0  3  0  0  0  0  0  0
  133.9380  133.9620  152.8420 C   0  0  0  0  0  3  0  0  0  0  0  0
  134.3680  134.0370  151.5140 C   0  0  0  0  0  0  0  0  0  0  0  0
  135.4140  134.9240  151.1790 C   0  0  0  0  0  3  0  0  0  0  0  0
  135.9580  135.7930  152.1530 C   0  0  0  0  0  0  0  0  0  0  0  0
  136.7940  135.8730  155.5120 C   0  0  0  0  0  1  0  0  0  0  0  0
  135.9440  136.5310  154.5220 O   0  0  0  0  0  0  0  0  0  0  0  0
  136.9170  136.7050  151.7500 O   0  0  0  0  0  0  0  0  0  0  0  0
  136.9430  137.1590  150.3760 C   0  0  0  0  0  1  0  0  0  0  0  0
  1 17  1  0  0  0  0
  2  1  1  0  0  0  0
  2  4  1  0  0  0  0
  3  2  2  0  0  0  0
  4  5  1  0  0  0  0
  6  4  1  0  0  0  0
  6  7  1  0  0  0  0
  7 12  2  0  0  0  0
  7  8  1  0  0  0  0
  8  9  2  0  0  0  0
  9 10  1  0  0  0  0
 10 13  1  0  0  0  0
 11 15  1  0  0  0  0
 11 10  2  0  0  0  0
 12 11  1  0  0  0  0
 13 14  1  0  0  0  0
 15 16  1  0  0  0  0
 17 18  1  0  0  0  0
 18 20  1  0  0  0  0
 19 18  2  0  0  0  0
 20 21  1  0  0  0  0
 21 25  1  0  0  0  0
 22 23  1  0  0  0  0
 22 29  1  0  0  0  0
 24 23  2  0  0  0  0
 25 24  1  0  0  0  0
 26 25  2  0  0  0  0
 26 27  1  0  0  0  0
 27 22  2  0  0  0  0
 29 28  1  0  0  0  0
 30 27  1  0  0  0  0
 31 30  1  0  0  0  0
M  END
>  <MODEL>
3

>  <REMARK>
 VINA RESULT:    -5.455      2.510      3.938
 INTER + INTRA:         -11.298
 INTER:                  -9.881
 INTRA:                  -1.417
 UNBOUND:                -2.016
  Name = CHEMBL1732239
  16 active torsions:
  status: ('A' for Active; 'I' for Inactive)
    1  A    between atoms: C_1  and  O_2
    2  A    between atoms: O_2  and  C_3
    3  A    between atoms: C_6  and  C_7
    4  A    between atoms: C_7  and  C_8
    5  A    between atoms: C_8  and  C_9
    6  A    between atoms: C_9  and  O_11
    7  A    between atoms: O_11  and  C_12
    8  A    between atoms: C_12  and  C_13
    9  A    between atoms: N_15  and  C_16
   10  A    between atoms: C_16  and  C_17
   11  A    between atoms: C_20  and  O_21
   12  A    between atoms: O_21  and  C_22
   13  A    between atoms: C_23  and  O_24
   14  A    between atoms: O_24  and  C_25
   15  A    between atoms: C_28  and  O_29
   16  A    between atoms: O_29  and  C_30
                            x       y       z     vdW  Elec       q    Type
                         _______ _______ _______ _____ _____    ______ ____

>  <TORSDO>
F 12

>  <SCORE>
-5.455

>  <RMSD_LB>
2.510

>  <RMSD_UB>
3.938

$$$$
CHEMBL1732239
 OpenBabel10162523483D

 31 32  0  0  0  0  0  0  0  0999 V2000
  138.6290  135.6910  139.1100 C   0  0  0  0  0  2  0  0  0  0  0  0
  137.7980  136.9190  139.5210 C   0  0  0  0  0  0  0  0  0  0  0  0
  137.2110  137.5750  138.6740 O   0  0  0  0  0  0  0  0  0  0  0  0
  137.7810  137.2240  140.8570 N   0  0  0  0  0  0  0  0  0  0  0  0
  138.3090  136.6740  141.4790 H   0  0  0  0  0  0  0  0  0  0  0  0
  136.9890  138.3630  141.3960 C   0  0  0  0  0  2  0  0  0  0  0  0
  136.2300  138.0460  142.6660 C   0  0  0  0  0  0  0  0  0  0  0  0
  135.3240  137.0010  142.6580 C   0  0  0  0  0  3  0  0  0  0  0  0
  134.6970  136.6100  143.8570 C   0  0  0  0  0  3  0  0  0  0  0  0
  134.8630  137.1480  145.1130 C   0  0  0  0  0  0  0  0  0  0  0  0
  135.8280  138.1460  145.1380 C   0  0  0  0  0  0  0  0  0  0  0  0
  136.4750  138.6070  143.9390 C   0  0  0  0  0  3  0  0  0  0  0  0
  134.2250  136.8370  146.2760 O   0  0  0  0  0  0  0  0  0  0  0  0
  133.0140  137.2260  146.9130 C   0  0  0  0  0  1  0  0  0  0  0  0
  136.2650  138.6990  146.3280 O   0  0  0  0  0  0  0  0  0  0  0  0
  137.6520  138.4350  146.5970 C   0  0  0  0  0  1  0  0  0  0  0  0
  138.9930  134.7750  140.1340 O   0  0  0  0  0  0  0  0  0  0  0  0
  138.8370  133.4440  139.8410 C   0  0  0  0  0  0  0  0  0  0  0  0
  138.9520  132.9520  138.7440 O   0  0  0  0  0  0  0  0  0  0  0  0
  138.3740  132.7400  141.1030 C   0  0  0  0  0  2  0  0  0  0  0  0
  137.0370  133.2350  141.6350 C   0  0  0  0  0  2  0  0  0  0  0  0
  137.4030  134.4280  145.7820 C   0  0  0  0  0  0  0  0  0  0  0  0
  138.2150  134.9590  144.7750 C   0  0  0  0  0  3  0  0  0  0  0  0
  138.0130  134.6230  143.4440 C   0  0  0  0  0  3  0  0  0  0  0  0
  137.0150  133.7190  143.0690 C   0  0  0  0  0  0  0  0  0  0  0  0
  136.1170  133.2400  144.0490 C   0  0  0  0  0  3  0  0  0  0  0  0
  136.2830  133.5940  145.4080 C   0  0  0  0  0  0  0  0  0  0  0  0
  138.4150  134.1450  148.0030 C   0  0  0  0  0  1  0  0  0  0  0  0
  137.5780  134.8990  147.0750 O   0  0  0  0  0  0  0  0  0  0  0  0
  135.4320  133.0250  146.3380 O   0  0  0  0  0  0  0  0  0  0  0  0
  134.0460  133.4420  146.3930 C   0  0  0  0  0  1  0  0  0  0  0  0
  1  2  1  0  0  0  0
  1 17  1  0  0  0  0
  2  4  1  0  0  0  0
  3  2  2  0  0  0  0
  4  6  1  0  0  0  0
  4  5  1  0  0  0  0
  6  7  1  0  0  0  0
  7 12  1  0  0  0  0
  8  7  2  0  0  0  0
  8  9  1  0  0  0  0
  9 10  2  0  0  0  0
 10 11  1  0  0  0  0
 10 13  1  0  0  0  0
 11 15  1  0  0  0  0
 12 11  2  0  0  0  0
 13 14  1  0  0  0  0
 15 16  1  0  0  0  0
 18 17  1  0  0  0  0
 18 20  1  0  0  0  0
 19 18  2  0  0  0  0
 20 21  1  0  0  0  0
 21 25  1  0  0  0  0
 22 29  1  0  0  0  0
 23 22  2  0  0  0  0
 24 23  1  0  0  0  0
 25 24  2  0  0  0  0
 25 26  1  0  0  0  0
 26 27  2  0  0  0  0
 27 22  1  0  0  0  0
 27 30  1  0  0  0  0
 29 28  1  0  0  0  0
 30 31  1  0  0  0  0
M  END
>  <MODEL>
4

>  <REMARK>
 VINA RESULT:    -5.165      6.310      9.747
 INTER + INTRA:         -10.805
 INTER:                  -8.042
 INTRA:                  -2.762
 UNBOUND:                -2.016
  Name = CHEMBL1732239
  16 active torsions:
  status: ('A' for Active; 'I' for Inactive)
    1  A    between atoms: C_1  and  O_2
    2  A    between atoms: O_2  and  C_3
    3  A    between atoms: C_6  and  C_7
    4  A    between atoms: C_7  and  C_8
    5  A    between atoms: C_8  and  C_9
    6  A    between atoms: C_9  and  O_11
    7  A    between atoms: O_11  and  C_12
    8  A    between atoms: C_12  and  C_13
    9  A    between atoms: N_15  and  C_16
   10  A    between atoms: C_16  and  C_17
   11  A    between atoms: C_20  and  O_21
   12  A    between atoms: O_21  and  C_22
   13  A    between atoms: C_23  and  O_24
   14  A    between atoms: O_24  and  C_25
   15  A    between atoms: C_28  and  O_29
   16  A    between atoms: O_29  and  C_30
                            x       y       z     vdW  Elec       q    Type
                         _______ _______ _______ _____ _____    ______ ____

>  <TORSDO>
F 12

>  <SCORE>
-5.165

>  <RMSD_LB>
6.310

>  <RMSD_UB>
9.747

$$$$
CHEMBL1732239
 OpenBabel10162523483D

 31 32  0  0  0  0  0  0  0  0999 V2000
  139.6990  136.0770  139.0440 C   0  0  0  0  0  2  0  0  0  0  0  0
  139.5640  137.2950  139.9740 C   0  0  0  0  0  0  0  0  0  0  0  0
  139.5480  138.4250  139.5090 O   0  0  0  0  0  0  0  0  0  0  0  0
  139.4850  137.0320  141.3170 N   0  0  0  0  0  0  0  0  0  0  0  0
  139.5430  136.0990  141.6240 H   0  0  0  0  0  0  0  0  0  0  0  0
  139.3160  138.1140  142.3250 C   0  0  0  0  0  2  0  0  0  0  0  0
  137.8860  138.3370  142.7620 C   0  0  0  0  0  0  0  0  0  0  0  0
  137.6180  139.3260  143.6910 C   0  0  0  0  0  3  0  0  0  0  0  0
  136.2840  139.6350  144.0200 C   0  0  0  0  0  3  0  0  0  0  0  0
  135.1360  139.0600  143.5240 C   0  0  0  0  0  0  0  0  0  0  0  0
  135.3980  138.1200  142.5370 C   0  0  0  0  0  0  0  0  0  0  0  0
  136.7420  137.7440  142.1850 C   0  0  0  0  0  3  0  0  0  0  0  0
  133.8390  139.2890  143.8710 O   0  0  0  0  0  0  0  0  0  0  0  0
  133.0990  140.3850  144.3970 C   0  0  0  0  0  1  0  0  0  0  0  0
  134.3810  137.5490  141.7940 O   0  0  0  0  0  0  0  0  0  0  0  0
  134.1250  138.2420  140.5610 C   0  0  0  0  0  1  0  0  0  0  0  0
  140.0250  134.8300  139.6430 O   0  0  0  0  0  0  0  0  0  0  0  0
  139.1460  133.8010  139.4190 C   0  0  0  0  0  0  0  0  0  0  0  0
  139.1640  133.0630  138.4630 O   0  0  0  0  0  0  0  0  0  0  0  0
  138.0900  133.8440  140.5070 C   0  0  0  0  0  2  0  0  0  0  0  0
  138.0850  132.6220  141.4150 C   0  0  0  0  0  2  0  0  0  0  0  0
  135.5380  132.7070  144.9170 C   0  0  0  0  0  0  0  0  0  0  0  0
  136.1370  131.5310  144.4540 C   0  0  0  0  0  3  0  0  0  0  0  0
  137.0180  131.5530  143.3830 C   0  0  0  0  0  3  0  0  0  0  0  0
  137.3120  132.7440  142.7110 C   0  0  0  0  0  0  0  0  0  0  0  0
  136.8000  133.9610  143.2130 C   0  0  0  0  0  3  0  0  0  0  0  0
  135.9260  133.9680  144.3240 C   0  0  0  0  0  0  0  0  0  0  0  0
  135.3930  132.8680  147.3650 C   0  0  0  0  0  1  0  0  0  0  0  0
  134.7660  132.6350  146.0670 O   0  0  0  0  0  0  0  0  0  0  0  0
  135.3820  135.1770  144.7180 O   0  0  0  0  0  0  0  0  0  0  0  0
  136.1630  136.0840  145.5320 C   0  0  0  0  0  1  0  0  0  0  0  0
  1 17  1  0  0  0  0
  1  2  1  0  0  0  0
  2  4  1  0  0  0  0
  3  2  2  0  0  0  0
  4  5  1  0  0  0  0
  4  6  1  0  0  0  0
  6  7  1  0  0  0  0
  7  8  1  0  0  0  0
  8  9  2  0  0  0  0
 10 13  1  0  0  0  0
 10  9  1  0  0  0  0
 11 10  2  0  0  0  0
 12 11  1  0  0  0  0
 12  7  2  0  0  0  0
 13 14  1  0  0  0  0
 15 11  1  0  0  0  0
 16 15  1  0  0  0  0
 18 17  1  0  0  0  0
 18 20  1  0  0  0  0
 19 18  2  0  0  0  0
 20 21  1  0  0  0  0
 21 25  1  0  0  0  0
 22 29  1  0  0  0  0
 23 22  1  0  0  0  0
 24 23  2  0  0  0  0
 25 26  2  0  0  0  0
 25 24  1  0  0  0  0
 26 27  1  0  0  0  0
 27 30  1  0  0  0  0
 27 22  2  0  0  0  0
 29 28  1  0  0  0  0
 30 31  1  0  0  0  0
M  END
>  <MODEL>
5

>  <REMARK>
 VINA RESULT:    -4.754      7.440     10.836
 INTER + INTRA:         -10.105
 INTER:                  -8.329
 INTRA:                  -1.776
 UNBOUND:                -2.016
  Name = CHEMBL1732239
  16 active torsions:
  status: ('A' for Active; 'I' for Inactive)
    1  A    between atoms: C_1  and  O_2
    2  A    between atoms: O_2  and  C_3
    3  A    between atoms: C_6  and  C_7
    4  A    between atoms: C_7  and  C_8
    5  A    between atoms: C_8  and  C_9
    6  A    between atoms: C_9  and  O_11
    7  A    between atoms: O_11  and  C_12
    8  A    between atoms: C_12  and  C_13
    9  A    between atoms: N_15  and  C_16
   10  A    between atoms: C_16  and  C_17
   11  A    between atoms: C_20  and  O_21
   12  A    between atoms: O_21  and  C_22
   13  A    between atoms: C_23  and  O_24
   14  A    between atoms: O_24  and  C_25
   15  A    between atoms: C_28  and  O_29
   16  A    between atoms: O_29  and  C_30
                            x       y       z     vdW  Elec       q    Type
                         _______ _______ _______ _____ _____    ______ ____

>  <TORSDO>
F 12

>  <SCORE>
-4.754

>  <RMSD_LB>
7.440

>  <RMSD_UB>
10.836

$$$$
CHEMBL1732239
 OpenBabel10162523483D

 31 32  0  0  0  0  0  0  0  0999 V2000
  131.4790  154.7410  151.8460 C   0  0  0  0  0  2  0  0  0  0  0  0
  132.6110  155.7780  151.9410 C   0  0  0  0  0  0  0  0  0  0  0  0
  132.8300  156.3550  152.9960 O   0  0  0  0  0  0  0  0  0  0  0  0
  133.3190  156.0150  150.7910 N   0  0  0  0  0  0  0  0  0  0  0  0
  133.0630  155.5420  149.9670 H   0  0  0  0  0  0  0  0  0  0  0  0
  134.4620  156.9660  150.7510 C   0  0  0  0  0  2  0  0  0  0  0  0
  134.9080  157.3430  149.3550 C   0  0  0  0  0  0  0  0  0  0  0  0
  134.6250  156.4840  148.3090 C   0  0  0  0  0  3  0  0  0  0  0  0
  134.9200  156.8690  146.9870 C   0  0  0  0  0  3  0  0  0  0  0  0
  135.4840  158.0480  146.5560 C   0  0  0  0  0  0  0  0  0  0  0  0
  135.6990  158.9430  147.5950 C   0  0  0  0  0  0  0  0  0  0  0  0
  135.4460  158.5900  148.9660 C   0  0  0  0  0  3  0  0  0  0  0  0
  135.8420  158.4220  145.2960 O   0  0  0  0  0  0  0  0  0  0  0  0
  136.3290  157.7630  144.1330 C   0  0  0  0  0  1  0  0  0  0  0  0
  136.1020  160.2450  147.3560 O   0  0  0  0  0  0  0  0  0  0  0  0
  135.0100  161.1800  147.3470 C   0  0  0  0  0  1  0  0  0  0  0  0
  130.3560  154.9160  152.6990 O   0  0  0  0  0  0  0  0  0  0  0  0
  130.3870  154.2350  153.8900 C   0  0  0  0  0  0  0  0  0  0  0  0
  130.4690  154.7410  154.9830 O   0  0  0  0  0  0  0  0  0  0  0  0
  130.4290  152.7500  153.5760 C   0  0  0  0  0  2  0  0  0  0  0  0
  129.1250  152.0190  153.8610 C   0  0  0  0  0  2  0  0  0  0  0  0
  127.5970  149.8130  150.4620 C   0  0  0  0  0  0  0  0  0  0  0  0
  127.8060  149.2170  151.7090 C   0  0  0  0  0  3  0  0  0  0  0  0
  128.2120  149.9710  152.8010 C   0  0  0  0  0  3  0  0  0  0  0  0
  128.4560  151.3430  152.6840 C   0  0  0  0  0  0  0  0  0  0  0  0
  128.1610  151.9910  151.4640 C   0  0  0  0  0  3  0  0  0  0  0  0
  127.7150  151.2500  150.3460 C   0  0  0  0  0  0  0  0  0  0  0  0
  125.6290  148.8270  149.3700 C   0  0  0  0  0  1  0  0  0  0  0  0
  127.0730  149.0280  149.4450 O   0  0  0  0  0  0  0  0  0  0  0  0
  127.5290  151.9210  149.1520 O   0  0  0  0  0  0  0  0  0  0  0  0
  128.2850  153.1250  148.8790 C   0  0  0  0  0  1  0  0  0  0  0  0
  1  2  1  0  0  0  0
  1 17  1  0  0  0  0
  2  3  2  0  0  0  0
  4  2  1  0  0  0  0
  5  4  1  0  0  0  0
  6  4  1  0  0  0  0
  7  6  1  0  0  0  0
  8  7  2  0  0  0  0
  9  8  1  0  0  0  0
 10  9  2  0  0  0  0
 10 11  1  0  0  0  0
 11 12  2  0  0  0  0
 12  7  1  0  0  0  0
 13 10  1  0  0  0  0
 14 13  1  0  0  0  0
 15 11  1  0  0  0  0
 16 15  1  0  0  0  0
 17 18  1  0  0  0  0
 18 19  2  0  0  0  0
 20 21  1  0  0  0  0
 20 18  1  0  0  0  0
 22 23  1  0  0  0  0
 23 24  2  0  0  0  0
 25 24  1  0  0  0  0
 25 21  1  0  0  0  0
 26 25  2  0  0  0  0
 27 22  2  0  0  0  0
 27 26  1  0  0  0  0
 28 29  1  0  0  0  0
 29 22  1  0  0  0  0
 30 27  1  0  0  0  0
 31 30  1  0  0  0  0
M  END
>  <MODEL>
6

>  <REMARK>
 VINA RESULT:    -4.412     17.064     19.332
 INTER + INTRA:          -9.524
 INTER:                  -8.656
 INTRA:                  -0.868
 UNBOUND:                -2.016
  Name = CHEMBL1732239
  16 active torsions:
  status: ('A' for Active; 'I' for Inactive)
    1  A    between atoms: C_1  and  O_2
    2  A    between atoms: O_2  and  C_3
    3  A    between atoms: C_6  and  C_7
    4  A    between atoms: C_7  and  C_8
    5  A    between atoms: C_8  and  C_9
    6  A    between atoms: C_9  and  O_11
    7  A    between atoms: O_11  and  C_12
    8  A    between atoms: C_12  and  C_13
    9  A    between atoms: N_15  and  C_16
   10  A    between atoms: C_16  and  C_17
   11  A    between atoms: C_20  and  O_21
   12  A    between atoms: O_21  and  C_22
   13  A    between atoms: C_23  and  O_24
   14  A    between atoms: O_24  and  C_25
   15  A    between atoms: C_28  and  O_29
   16  A    between atoms: O_29  and  C_30
                            x       y       z     vdW  Elec       q    Type
                         _______ _______ _______ _____ _____    ______ ____

>  <TORSDO>
F 12

>  <SCORE>
-4.412

>  <RMSD_LB>
17.064

>  <RMSD_UB>
19.332

$$$$
CHEMBL1732239
 OpenBabel10162523483D

 31 32  0  0  0  0  0  0  0  0999 V2000
  130.5650  154.7760  152.1600 C   0  0  0  0  0  2  0  0  0  0  0  0
  131.9100  155.5170  152.2540 C   0  0  0  0  0  0  0  0  0  0  0  0
  132.9590  154.9130  152.0880 O   0  0  0  0  0  0  0  0  0  0  0  0
  131.8490  156.8550  152.5470 N   0  0  0  0  0  0  0  0  0  0  0  0
  130.9710  157.2690  152.7070 H   0  0  0  0  0  0  0  0  0  0  0  0
  133.0710  157.7000  152.6330 C   0  0  0  0  0  2  0  0  0  0  0  0
  133.1330  158.5790  153.8640 C   0  0  0  0  0  0  0  0  0  0  0  0
  132.3660  158.2420  154.9630 C   0  0  0  0  0  3  0  0  0  0  0  0
  132.5000  158.9730  156.1600 C   0  0  0  0  0  3  0  0  0  0  0  0
  133.3330  160.0400  156.4110 C   0  0  0  0  0  0  0  0  0  0  0  0
  134.1580  160.3310  155.3340 C   0  0  0  0  0  0  0  0  0  0  0  0
  134.0420  159.6390  154.0780 C   0  0  0  0  0  3  0  0  0  0  0  0
  133.4370  160.8070  157.5320 O   0  0  0  0  0  0  0  0  0  0  0  0
  134.3550  160.9170  158.6140 C   0  0  0  0  0  1  0  0  0  0  0  0
  135.1820  161.2570  155.4360 O   0  0  0  0  0  0  0  0  0  0  0  0
  134.9070  162.4820  154.7370 C   0  0  0  0  0  1  0  0  0  0  0  0
  129.6690  154.9040  153.2560 O   0  0  0  0  0  0  0  0  0  0  0  0
  129.8900  154.0670  154.3210 C   0  0  0  0  0  0  0  0  0  0  0  0
  129.9510  154.4090  155.4770 O   0  0  0  0  0  0  0  0  0  0  0  0
  130.1660  152.6790  153.7730 C   0  0  0  0  0  2  0  0  0  0  0  0
  129.0280  151.6900  153.9870 C   0  0  0  0  0  2  0  0  0  0  0  0
  127.5550  149.8800  150.3390 C   0  0  0  0  0  0  0  0  0  0  0  0
  127.8890  149.1260  151.4680 C   0  0  0  0  0  3  0  0  0  0  0  0
  128.2740  149.7430  152.6500 C   0  0  0  0  0  3  0  0  0  0  0  0
  128.3700  151.1340  152.7430 C   0  0  0  0  0  0  0  0  0  0  0  0
  127.9470  151.9270  151.6530 C   0  0  0  0  0  3  0  0  0  0  0  0
  127.5200  151.3220  150.4490 C   0  0  0  0  0  0  0  0  0  0  0  0
  125.6840  148.7220  149.2460 C   0  0  0  0  0  1  0  0  0  0  0  0
  127.0610  149.2090  149.2310 O   0  0  0  0  0  0  0  0  0  0  0  0
  127.2030  152.1450  149.3830 O   0  0  0  0  0  0  0  0  0  0  0  0
  128.2360  152.5370  148.4470 C   0  0  0  0  0  1  0  0  0  0  0  0
  1  2  1  0  0  0  0
  1 17  1  0  0  0  0
  2  4  1  0  0  0  0
  3  2  2  0  0  0  0
  4  6  1  0  0  0  0
  4  5  1  0  0  0  0
  6  7  1  0  0  0  0
  7 12  2  0  0  0  0
  7  8  1  0  0  0  0
  8  9  2  0  0  0  0
  9 10  1  0  0  0  0
 10 13  1  0  0  0  0
 11 15  1  0  0  0  0
 11 10  2  0  0  0  0
 12 11  1  0  0  0  0
 13 14  1  0  0  0  0
 16 15  1  0  0  0  0
 17 18  1  0  0  0  0
 18 19  2  0  0  0  0
 20 21  1  0  0  0  0
 20 18  1  0  0  0  0
 22 27  2  0  0  0  0
 22 23  1  0  0  0  0
 23 24  2  0  0  0  0
 24 25  1  0  0  0  0
 25 21  1  0  0  0  0
 26 25  2  0  0  0  0
 27 26  1  0  0  0  0
 29 28  1  0  0  0  0
 29 22  1  0  0  0  0
 30 27  1  0  0  0  0
 31 30  1  0  0  0  0
M  END
>  <MODEL>
7

>  <REMARK>
 VINA RESULT:    -4.094     18.074     20.333
 INTER + INTRA:          -8.981
 INTER:                  -7.969
 INTRA:                  -1.012
 UNBOUND:                -2.016
  Name = CHEMBL1732239
  16 active torsions:
  status: ('A' for Active; 'I' for Inactive)
    1  A    between atoms: C_1  and  O_2
    2  A    between atoms: O_2  and  C_3
    3  A    between atoms: C_6  and  C_7
    4  A    between atoms: C_7  and  C_8
    5  A    between atoms: C_8  and  C_9
    6  A    between atoms: C_9  and  O_11
    7  A    between atoms: O_11  and  C_12
    8  A    between atoms: C_12  and  C_13
    9  A    between atoms: N_15  and  C_16
   10  A    between atoms: C_16  and  C_17
   11  A    between atoms: C_20  and  O_21
   12  A    between atoms: O_21  and  C_22
   13  A    between atoms: C_23  and  O_24
   14  A    between atoms: O_24  and  C_25
   15  A    between atoms: C_28  and  O_29
   16  A    between atoms: O_29  and  C_30
                            x       y       z     vdW  Elec       q    Type
                         _______ _______ _______ _____ _____    ______ ____

>  <TORSDO>
F 12

>  <SCORE>
-4.094

>  <RMSD_LB>
18.074

>  <RMSD_UB>
20.333

$$$$
CHEMBL1732239
 OpenBabel10162523483D

 31 32  0  0  0  0  0  0  0  0999 V2000
  129.6510  155.1590  153.0470 C   0  0  0  0  0  2  0  0  0  0  0  0
  131.0940  155.6790  153.1520 C   0  0  0  0  0  0  0  0  0  0  0  0
  132.0350  154.9030  153.0770 O   0  0  0  0  0  0  0  0  0  0  0  0
  131.2440  157.0270  153.3490 N   0  0  0  0  0  0  0  0  0  0  0  0
  130.4400  157.5880  153.4390 H   0  0  0  0  0  0  0  0  0  0  0  0
  132.5840  157.6690  153.4330 C   0  0  0  0  0  2  0  0  0  0  0  0
  132.7740  158.5520  154.6470 C   0  0  0  0  0  0  0  0  0  0  0  0
  132.0040  158.3180  155.7700 C   0  0  0  0  0  3  0  0  0  0  0  0
  132.2480  159.0460  156.9510 C   0  0  0  0  0  3  0  0  0  0  0  0
  133.2000  160.0180  157.1640 C   0  0  0  0  0  0  0  0  0  0  0  0
  134.0240  160.2020  156.0620 C   0  0  0  0  0  0  0  0  0  0  0  0
  133.7990  159.5090  154.8210 C   0  0  0  0  0  3  0  0  0  0  0  0
  133.4170  160.7840  158.2680 O   0  0  0  0  0  0  0  0  0  0  0  0
  133.0690  162.1000  158.6850 C   0  0  0  0  0  1  0  0  0  0  0  0
  135.1450  161.0090  156.1240 O   0  0  0  0  0  0  0  0  0  0  0  0
  134.9860  162.2520  155.4190 C   0  0  0  0  0  1  0  0  0  0  0  0
  128.8920  155.0850  154.2470 O   0  0  0  0  0  0  0  0  0  0  0  0
  128.9550  153.8980  154.9330 C   0  0  0  0  0  0  0  0  0  0  0  0
  129.4200  152.8690  154.5060 O   0  0  0  0  0  0  0  0  0  0  0  0
  128.2270  154.0830  156.2520 C   0  0  0  0  0  2  0  0  0  0  0  0
  129.1370  154.4530  157.4150 C   0  0  0  0  0  2  0  0  0  0  0  0
  128.7690  158.4550  159.0300 C   0  0  0  0  0  0  0  0  0  0  0  0
  129.3730  157.4120  159.7400 C   0  0  0  0  0  3  0  0  0  0  0  0
  129.5540  156.1650  159.1600 C   0  0  0  0  0  3  0  0  0  0  0  0
  129.1130  155.9000  157.8600 C   0  0  0  0  0  0  0  0  0  0  0  0
  128.5880  156.9560  157.0830 C   0  0  0  0  0  3  0  0  0  0  0  0
  128.4230  158.2440  157.6420 C   0  0  0  0  0  0  0  0  0  0  0  0
  129.8190  160.6500  159.3750 C   0  0  0  0  0  1  0  0  0  0  0  0
  128.7300  159.7090  159.6220 O   0  0  0  0  0  0  0  0  0  0  0  0
  127.8200  159.2180  156.8660 O   0  0  0  0  0  0  0  0  0  0  0  0
  128.6050  159.9470  155.8920 C   0  0  0  0  0  1  0  0  0  0  0  0
  1  2  1  0  0  0  0
  1 17  1  0  0  0  0
  2  4  1  0  0  0  0
  3  2  2  0  0  0  0
  4  6  1  0  0  0  0
  4  5  1  0  0  0  0
  6  7  1  0  0  0  0
  7 12  2  0  0  0  0
  7  8  1  0  0  0  0
  8  9  2  0  0  0  0
  9 10  1  0  0  0  0
 10 13  1  0  0  0  0
 11 15  1  0  0  0  0
 11 10  2  0  0  0  0
 12 11  1  0  0  0  0
 13 14  1  0  0  0  0
 16 15  1  0  0  0  0
 17 18  1  0  0  0  0
 18 20  1  0  0  0  0
 19 18  2  0  0  0  0
 20 21  1  0  0  0  0
 21 25  1  0  0  0  0
 22 29  1  0  0  0  0
 22 23  1  0  0  0  0
 24 23  2  0  0  0  0
 25 24  1  0  0  0  0
 26 27  1  0  0  0  0
 26 25  2  0  0  0  0
 27 22  2  0  0  0  0
 28 29  1  0  0  0  0
 30 27  1  0  0  0  0
 31 30  1  0  0  0  0
M  END
>  <MODEL>
8

>  <REMARK>
 VINA RESULT:    -3.765     20.588     22.348
 INTER + INTRA:          -8.423
 INTER:                  -6.407
 INTRA:                  -2.016
 UNBOUND:                -2.016
  Name = CHEMBL1732239
  16 active torsions:
  status: ('A' for Active; 'I' for Inactive)
    1  A    between atoms: C_1  and  O_2
    2  A    between atoms: O_2  and  C_3
    3  A    between atoms: C_6  and  C_7
    4  A    between atoms: C_7  and  C_8
    5  A    between atoms: C_8  and  C_9
    6  A    between atoms: C_9  and  O_11
    7  A    between atoms: O_11  and  C_12
    8  A    between atoms: C_12  and  C_13
    9  A    between atoms: N_15  and  C_16
   10  A    between atoms: C_16  and  C_17
   11  A    between atoms: C_20  and  O_21
   12  A    between atoms: O_21  and  C_22
   13  A    between atoms: C_23  and  O_24
   14  A    between atoms: O_24  and  C_25
   15  A    between atoms: C_28  and  O_29
   16  A    between atoms: O_29  and  C_30
                            x       y       z     vdW  Elec       q    Type
                         _______ _______ _______ _____ _____    ______ ____

>  <TORSDO>
F 12

>  <SCORE>
-3.765

>  <RMSD_LB>
20.588

>  <RMSD_UB>
22.348

$$$$
CHEMBL1732239
 OpenBabel10162523483D

 31 32  0  0  0  0  0  0  0  0999 V2000
  141.2100  133.6830  138.7760 C   0  0  0  0  0  2  0  0  0  0  0  0
  142.5390  133.6900  138.0030 C   0  0  0  0  0  0  0  0  0  0  0  0
  142.7250  134.4980  137.1050 O   0  0  0  0  0  0  0  0  0  0  0  0
  143.4620  132.7450  138.3680 N   0  0  0  0  0  0  0  0  0  0  0  0
  143.2310  132.1000  139.0750 H   0  0  0  0  0  0  0  0  0  0  0  0
  144.8030  132.6610  137.7280 C   0  0  0  0  0  2  0  0  0  0  0  0
  145.2500  131.2530  137.4030 C   0  0  0  0  0  0  0  0  0  0  0  0
  144.8130  130.6670  136.2300 C   0  0  0  0  0  3  0  0  0  0  0  0
  145.3120  129.4070  135.8480 C   0  0  0  0  0  3  0  0  0  0  0  0
  146.2280  128.6230  136.5130 C   0  0  0  0  0  0  0  0  0  0  0  0
  146.7250  129.2410  137.6510 C   0  0  0  0  0  0  0  0  0  0  0  0
  146.2270  130.5130  138.1050 C   0  0  0  0  0  3  0  0  0  0  0  0
  146.6800  127.3760  136.2050 O   0  0  0  0  0  0  0  0  0  0  0  0
  146.1140  126.1900  135.6570 C   0  0  0  0  0  1  0  0  0  0  0  0
  147.7750  128.6980  138.3700 O   0  0  0  0  0  0  0  0  0  0  0  0
  149.0610  129.1670  137.9320 C   0  0  0  0  0  1  0  0  0  0  0  0
  140.1310  134.4290  138.2300 O   0  0  0  0  0  0  0  0  0  0  0  0
  138.9140  134.2780  138.8470 C   0  0  0  0  0  0  0  0  0  0  0  0
  137.8480  134.2160  138.2840 O   0  0  0  0  0  0  0  0  0  0  0  0
  139.1430  134.3350  140.3460 C   0  0  0  0  0  2  0  0  0  0  0  0
  137.9630  134.8870  141.1330 C   0  0  0  0  0  2  0  0  0  0  0  0
  136.2230  132.3350  144.1680 C   0  0  0  0  0  0  0  0  0  0  0  0
  136.8490  131.8230  143.0270 C   0  0  0  0  0  3  0  0  0  0  0  0
  137.4740  132.6640  142.1180 C   0  0  0  0  0  3  0  0  0  0  0  0
  137.4720  134.0510  142.2960 C   0  0  0  0  0  0  0  0  0  0  0  0
  136.9340  134.5920  143.4850 C   0  0  0  0  0  3  0  0  0  0  0  0
  136.3200  133.7510  144.4410 C   0  0  0  0  0  0  0  0  0  0  0  0
  136.4970  131.1540  146.3060 C   0  0  0  0  0  1  0  0  0  0  0  0
  135.7250  131.4330  145.0980 O   0  0  0  0  0  0  0  0  0  0  0  0
  135.7290  134.3420  145.5430 O   0  0  0  0  0  0  0  0  0  0  0  0
  134.3260  134.6980  145.5010 C   0  0  0  0  0  1  0  0  0  0  0  0
  2  4  1  0  0  0  0
  2  1  1  0  0  0  0
  3  2  2  0  0  0  0
  4  5  1  0  0  0  0
  6  4  1  0  0  0  0
  7  6  1  0  0  0  0
  7 12  1  0  0  0  0
  8  7  2  0  0  0  0
  9  8  1  0  0  0  0
  9 10  2  0  0  0  0
 10 11  1  0  0  0  0
 11 12  2  0  0  0  0
 11 15  1  0  0  0  0
 13 10  1  0  0  0  0
 14 13  1  0  0  0  0
 16 15  1  0  0  0  0
 17  1  1  0  0  0  0
 17 18  1  0  0  0  0
 18 20  1  0  0  0  0
 19 18  2  0  0  0  0
 20 21  1  0  0  0  0
 21 25  1  0  0  0  0
 22 27  1  0  0  0  0
 22 29  1  0  0  0  0
 23 22  2  0  0  0  0
 24 25  2  0  0  0  0
 24 23  1  0  0  0  0
 25 26  1  0  0  0  0
 26 27  2  0  0  0  0
 27 30  1  0  0  0  0
 29 28  1  0  0  0  0
 31 30  1  0  0  0  0
M  END
>  <MODEL>
9

>  <REMARK>
 VINA RESULT:    -3.703     12.025     14.579
 INTER + INTRA:          -8.316
 INTER:                  -7.619
 INTRA:                  -0.697
 UNBOUND:                -2.016
  Name = CHEMBL1732239
  16 active torsions:
  status: ('A' for Active; 'I' for Inactive)
    1  A    between atoms: C_1  and  O_2
    2  A    between atoms: O_2  and  C_3
    3  A    between atoms: C_6  and  C_7
    4  A    between atoms: C_7  and  C_8
    5  A    between atoms: C_8  and  C_9
    6  A    between atoms: C_9  and  O_11
    7  A    between atoms: O_11  and  C_12
    8  A    between atoms: C_12  and  C_13
    9  A    between atoms: N_15  and  C_16
   10  A    between atoms: C_16  and  C_17
   11  A    between atoms: C_20  and  O_21
   12  A    between atoms: O_21  and  C_22
   13  A    between atoms: C_23  and  O_24
   14  A    between atoms: O_24  and  C_25
   15  A    between atoms: C_28  and  O_29
   16  A    between atoms: O_29  and  C_30
                            x       y       z     vdW  Elec       q    Type
                         _______ _______ _______ _____ _____    ______ ____

>  <TORSDO>
F 12

>  <SCORE>
-3.703

>  <RMSD_LB>
12.025

>  <RMSD_UB>
14.579

$$$$
