CHEMBL3617003
 OpenBabel10162523443D

 24 25  0  0  0  0  0  0  0  0999 V2000
  146.3730  141.2040  147.5630 C   0  0  0  0  0  0  0  0  0  0  0  0
  146.6810  142.1530  146.8420 O   0  0  0  0  0  0  0  0  0  0  0  0
  146.2680  141.3120  148.9350 N   0  0  0  0  0  0  0  0  0  0  0  0
  145.9610  140.5410  149.4650 H   0  0  0  0  0  0  0  0  0  0  0  0
  146.0970  139.8210  147.0010 C   0  0  0  0  0  2  0  0  0  0  0  0
  149.6160  137.5030  145.9690 C   0  0  0  0  0  0  0  0  0  0  0  0
  149.2330  138.5750  145.1640 C   0  0  0  0  0  3  0  0  0  0  0  0
  148.0920  139.3240  145.4740 C   0  0  0  0  0  3  0  0  0  0  0  0
  147.3150  139.0180  146.5960 C   0  0  0  0  0  0  0  0  0  0  0  0
  147.6950  137.9230  147.3890 C   0  0  0  0  0  3  0  0  0  0  0  0
  148.8350  137.1760  147.0760 C   0  0  0  0  0  3  0  0  0  0  0  0
  151.6080  136.5840  146.8720 C   0  0  0  0  0  1  0  0  0  0  0  0
  150.7130  136.7090  145.7730 O   0  0  0  0  0  0  0  0  0  0  0  0
  146.6080  142.5520  149.5950 C   0  0  0  0  0  2  0  0  0  0  0  0
  147.0770  142.3240  151.0070 C   0  0  0  0  0  0  0  0  0  0  0  0
  148.4440  142.1100  151.2660 C   0  0  0  0  0  3  0  0  0  0  0  0
  148.9020  141.8660  152.5640 C   0  0  0  0  0  3  0  0  0  0  0  0
  147.9890  141.8530  153.6100 C   0  0  0  0  0  0  0  0  0  0  0  0
  146.6380  142.0860  153.3670 C   0  0  0  0  0  0  0  0  0  0  0  0
  146.1720  142.3190  152.0780 C   0  0  0  0  0  3  0  0  0  0  0  0
  148.3730  141.6110  154.9010 O   0  0  0  0  0  0  0  0  0  0  0  0
  147.7240  141.4660  155.5620 H   0  0  0  0  0  0  0  0  0  0  0  0
  145.7510  142.0850  154.4050 O   0  0  0  0  0  0  0  0  0  0  0  0
  145.7760  141.3970  155.0410 H   0  0  0  0  0  0  0  0  0  0  0  0
  1  3  1  0  0  0  0
  2  1  2  0  0  0  0
  3  4  1  0  0  0  0
  3 14  1  0  0  0  0
  5  1  1  0  0  0  0
  6 11  1  0  0  0  0
  7  8  1  0  0  0  0
  7  6  2  0  0  0  0
  8  9  2  0  0  0  0
  9  5  1  0  0  0  0
  9 10  1  0  0  0  0
 11 10  2  0  0  0  0
 13  6  1  0  0  0  0
 13 12  1  0  0  0  0
 14 15  1  0  0  0  0
 15 16  2  0  0  0  0
 15 20  1  0  0  0  0
 16 17  1  0  0  0  0
 17 18  2  0  0  0  0
 18 21  1  0  0  0  0
 19 18  1  0  0  0  0
 19 23  1  0  0  0  0
 20 19  2  0  0  0  0
 21 22  1  0  0  0  0
 23 24  1  0  0  0  0
M  END
>  <MODEL>
1

>  <REMARK>
 VINA RESULT:    -7.538      0.000      0.000
 INTER + INTRA:         -10.540
 INTER:                 -10.117
 INTRA:                  -0.423
 UNBOUND:                -0.359
  Name = CHEMBL3617003
  8 active torsions:
  status: ('A' for Active; 'I' for Inactive)
    1  A    between atoms: C_1  and  O_2
    2  A    between atoms: O_2  and  C_3
    3  A    between atoms: C_6  and  C_7
    4  A    between atoms: C_7  and  C_8
    5  A    between atoms: N_10  and  C_11
    6  A    between atoms: C_11  and  C_12
    7  A    between atoms: C_15  and  O_16
    8  A    between atoms: C_17  and  O_18
                            x       y       z     vdW  Elec       q    Type
                         _______ _______ _______ _____ _____    ______ ____

>  <TORSDO>
F 7

>  <SCORE>
-7.538

>  <RMSD_LB>
0.000

>  <RMSD_UB>
0.000

$$$$
CHEMBL3617003
 OpenBabel10162523443D

 24 25  0  0  0  0  0  0  0  0999 V2000
  145.6010  140.3720  148.6490 C   0  0  0  0  0  0  0  0  0  0  0  0
  146.6420  140.0240  148.0910 O   0  0  0  0  0  0  0  0  0  0  0  0
  145.5070  141.5230  149.4030 N   0  0  0  0  0  0  0  0  0  0  0  0
  144.6390  141.7920  149.7810 H   0  0  0  0  0  0  0  0  0  0  0  0
  144.3270  139.5490  148.5640 C   0  0  0  0  0  2  0  0  0  0  0  0
  142.8580  138.0710  152.3690 C   0  0  0  0  0  0  0  0  0  0  0  0
  143.7380  137.2940  151.6170 C   0  0  0  0  0  3  0  0  0  0  0  0
  144.2100  137.7480  150.3810 C   0  0  0  0  0  3  0  0  0  0  0  0
  143.8150  138.9910  149.8740 C   0  0  0  0  0  0  0  0  0  0  0  0
  142.9110  139.7580  150.6270 C   0  0  0  0  0  3  0  0  0  0  0  0
  142.4410  139.3010  151.8610 C   0  0  0  0  0  3  0  0  0  0  0  0
  141.9310  138.8190  154.4210 C   0  0  0  0  0  1  0  0  0  0  0  0
  142.3410  137.7380  153.5910 O   0  0  0  0  0  0  0  0  0  0  0  0
  146.6800  142.3340  149.6420 C   0  0  0  0  0  2  0  0  0  0  0  0
  147.1750  142.1980  151.0570 C   0  0  0  0  0  0  0  0  0  0  0  0
  148.5440  141.9910  151.3050 C   0  0  0  0  0  3  0  0  0  0  0  0
  149.0260  141.8320  152.6080 C   0  0  0  0  0  3  0  0  0  0  0  0
  148.1320  141.8990  153.6690 C   0  0  0  0  0  0  0  0  0  0  0  0
  146.7790  142.1270  153.4360 C   0  0  0  0  0  0  0  0  0  0  0  0
  146.2900  142.2750  152.1430 C   0  0  0  0  0  3  0  0  0  0  0  0
  148.5390  141.7430  154.9660 O   0  0  0  0  0  0  0  0  0  0  0  0
  149.4510  141.6560  155.1640 H   0  0  0  0  0  0  0  0  0  0  0  0
  145.9120  142.2040  154.4880 O   0  0  0  0  0  0  0  0  0  0  0  0
  145.3990  141.4580  154.7280 H   0  0  0  0  0  0  0  0  0  0  0  0
  1  3  1  0  0  0  0
  2  1  2  0  0  0  0
  3 14  1  0  0  0  0
  3  4  1  0  0  0  0
  5  1  1  0  0  0  0
  5  9  1  0  0  0  0
  6 13  1  0  0  0  0
  7  6  2  0  0  0  0
  8  7  1  0  0  0  0
  9  8  2  0  0  0  0
  9 10  1  0  0  0  0
 10 11  2  0  0  0  0
 11  6  1  0  0  0  0
 13 12  1  0  0  0  0
 14 15  1  0  0  0  0
 15 16  2  0  0  0  0
 15 20  1  0  0  0  0
 16 17  1  0  0  0  0
 17 18  2  0  0  0  0
 18 21  1  0  0  0  0
 19 18  1  0  0  0  0
 19 23  1  0  0  0  0
 20 19  2  0  0  0  0
 21 22  1  0  0  0  0
 23 24  1  0  0  0  0
M  END
>  <MODEL>
2

>  <REMARK>
 VINA RESULT:    -7.397      3.245      5.492
 INTER + INTRA:         -10.350
 INTER:                  -9.643
 INTRA:                  -0.708
 UNBOUND:                -0.359
  Name = CHEMBL3617003
  8 active torsions:
  status: ('A' for Active; 'I' for Inactive)
    1  A    between atoms: C_1  and  O_2
    2  A    between atoms: O_2  and  C_3
    3  A    between atoms: C_6  and  C_7
    4  A    between atoms: C_7  and  C_8
    5  A    between atoms: N_10  and  C_11
    6  A    between atoms: C_11  and  C_12
    7  A    between atoms: C_15  and  O_16
    8  A    between atoms: C_17  and  O_18
                            x       y       z     vdW  Elec       q    Type
                         _______ _______ _______ _____ _____    ______ ____

>  <TORSDO>
F 7

>  <SCORE>
-7.397

>  <RMSD_LB>
3.245

>  <RMSD_UB>
5.492

$$$$
CHEMBL3617003
 OpenBabel10162523443D

 24 25  0  0  0  0  0  0  0  0999 V2000
  135.6650  135.2010  152.3940 C   0  0  0  0  0  0  0  0  0  0  0  0
  135.9680  134.0230  152.5830 O   0  0  0  0  0  0  0  0  0  0  0  0
  134.3970  135.5940  152.0180 N   0  0  0  0  0  0  0  0  0  0  0  0
  134.1850  136.5520  151.9360 H   0  0  0  0  0  0  0  0  0  0  0  0
  136.6730  136.3260  152.5440 C   0  0  0  0  0  2  0  0  0  0  0  0
  137.5760  137.6520  156.5750 C   0  0  0  0  0  0  0  0  0  0  0  0
  136.5900  136.6890  156.3670 C   0  0  0  0  0  3  0  0  0  0  0  0
  136.2750  136.2610  155.0730 C   0  0  0  0  0  3  0  0  0  0  0  0
  136.9440  136.7840  153.9600 C   0  0  0  0  0  0  0  0  0  0  0  0
  137.9210  137.7690  154.1770 C   0  0  0  0  0  3  0  0  0  0  0  0
  138.2320  138.1960  155.4710 C   0  0  0  0  0  3  0  0  0  0  0  0
  137.1830  137.7650  158.9120 C   0  0  0  0  0  1  0  0  0  0  0  0
  137.9760  138.1380  157.7890 O   0  0  0  0  0  0  0  0  0  0  0  0
  133.3800  134.6040  151.7440 C   0  0  0  0  0  2  0  0  0  0  0  0
  133.3770  134.1920  150.2960 C   0  0  0  0  0  0  0  0  0  0  0  0
  133.8780  132.9310  149.9250 C   0  0  0  0  0  3  0  0  0  0  0  0
  133.9150  132.5350  148.5840 C   0  0  0  0  0  3  0  0  0  0  0  0
  133.4300  133.4010  147.6130 C   0  0  0  0  0  0  0  0  0  0  0  0
  132.9100  134.6410  147.9730 C   0  0  0  0  0  0  0  0  0  0  0  0
  132.8800  135.0470  149.3020 C   0  0  0  0  0  3  0  0  0  0  0  0
  133.4450  133.0770  146.2840 O   0  0  0  0  0  0  0  0  0  0  0  0
  134.2610  133.0170  145.8260 H   0  0  0  0  0  0  0  0  0  0  0  0
  132.4230  135.4790  147.0100 O   0  0  0  0  0  0  0  0  0  0  0  0
  131.4980  135.5700  146.8930 H   0  0  0  0  0  0  0  0  0  0  0  0
  1  5  1  0  0  0  0
  1  2  2  0  0  0  0
  3  1  1  0  0  0  0
  4  3  1  0  0  0  0
  5  9  1  0  0  0  0
  6 13  1  0  0  0  0
  7  6  1  0  0  0  0
  8  7  2  0  0  0  0
  9 10  2  0  0  0  0
  9  8  1  0  0  0  0
 10 11  1  0  0  0  0
 11  6  2  0  0  0  0
 13 12  1  0  0  0  0
 14  3  1  0  0  0  0
 15 14  1  0  0  0  0
 16 15  1  0  0  0  0
 17 16  2  0  0  0  0
 18 19  2  0  0  0  0
 18 17  1  0  0  0  0
 19 20  1  0  0  0  0
 20 15  2  0  0  0  0
 21 18  1  0  0  0  0
 22 21  1  0  0  0  0
 23 19  1  0  0  0  0
 24 23  1  0  0  0  0
M  END
>  <MODEL>
3

>  <REMARK>
 VINA RESULT:    -7.327     12.899     15.803
 INTER + INTRA:         -10.255
 INTER:                  -9.808
 INTRA:                  -0.448
 UNBOUND:                -0.359
  Name = CHEMBL3617003
  8 active torsions:
  status: ('A' for Active; 'I' for Inactive)
    1  A    between atoms: C_1  and  O_2
    2  A    between atoms: O_2  and  C_3
    3  A    between atoms: C_6  and  C_7
    4  A    between atoms: C_7  and  C_8
    5  A    between atoms: N_10  and  C_11
    6  A    between atoms: C_11  and  C_12
    7  A    between atoms: C_15  and  O_16
    8  A    between atoms: C_17  and  O_18
                            x       y       z     vdW  Elec       q    Type
                         _______ _______ _______ _____ _____    ______ ____

>  <TORSDO>
F 7

>  <SCORE>
-7.327

>  <RMSD_LB>
12.899

>  <RMSD_UB>
15.803

$$$$
CHEMBL3617003
 OpenBabel10162523443D

 24 25  0  0  0  0  0  0  0  0999 V2000
  134.0030  134.3350  153.8110 C   0  0  0  0  0  0  0  0  0  0  0  0
  134.3510  133.2070  154.1640 O   0  0  0  0  0  0  0  0  0  0  0  0
  133.5770  134.6170  152.5290 N   0  0  0  0  0  0  0  0  0  0  0  0
  133.2520  135.5190  152.3080 H   0  0  0  0  0  0  0  0  0  0  0  0
  134.0290  135.5200  154.7590 C   0  0  0  0  0  2  0  0  0  0  0  0
  137.9540  136.4740  156.3410 C   0  0  0  0  0  0  0  0  0  0  0  0
  137.0150  135.8420  157.1540 C   0  0  0  0  0  3  0  0  0  0  0  0
  135.7400  135.5400  156.6650 C   0  0  0  0  0  3  0  0  0  0  0  0
  135.3790  135.8610  155.3520 C   0  0  0  0  0  0  0  0  0  0  0  0
  136.3230  136.5180  154.5460 C   0  0  0  0  0  3  0  0  0  0  0  0
  137.5970  136.8190  155.0380 C   0  0  0  0  0  3  0  0  0  0  0  0
  139.8440  137.8600  155.9670 C   0  0  0  0  0  1  0  0  0  0  0  0
  139.2300  136.8080  156.7040 O   0  0  0  0  0  0  0  0  0  0  0  0
  133.6080  133.5920  151.5100 C   0  0  0  0  0  2  0  0  0  0  0  0
  133.4070  134.1670  150.1330 C   0  0  0  0  0  0  0  0  0  0  0  0
  133.3210  133.3090  149.0200 C   0  0  0  0  0  3  0  0  0  0  0  0
  133.1640  133.8190  147.7280 C   0  0  0  0  0  3  0  0  0  0  0  0
  133.0750  135.1930  147.5510 C   0  0  0  0  0  0  0  0  0  0  0  0
  133.1350  136.0480  148.6490 C   0  0  0  0  0  0  0  0  0  0  0  0
  133.3020  135.5510  149.9360 C   0  0  0  0  0  3  0  0  0  0  0  0
  132.9300  135.7550  146.3120 O   0  0  0  0  0  0  0  0  0  0  0  0
  132.7870  135.2070  145.5640 H   0  0  0  0  0  0  0  0  0  0  0  0
  133.0320  137.3980  148.4640 O   0  0  0  0  0  0  0  0  0  0  0  0
  132.2170  137.8310  148.6210 H   0  0  0  0  0  0  0  0  0  0  0  0
  1  2  2  0  0  0  0
  1  5  1  0  0  0  0
  3  1  1  0  0  0  0
  4  3  1  0  0  0  0
  5  9  1  0  0  0  0
  6 13  1  0  0  0  0
  6  7  1  0  0  0  0
  8  7  2  0  0  0  0
  9  8  1  0  0  0  0
 10 11  1  0  0  0  0
 10  9  2  0  0  0  0
 11  6  2  0  0  0  0
 12 13  1  0  0  0  0
 14  3  1  0  0  0  0
 15 14  1  0  0  0  0
 16 15  2  0  0  0  0
 17 16  1  0  0  0  0
 18 17  2  0  0  0  0
 18 19  1  0  0  0  0
 19 20  2  0  0  0  0
 20 15  1  0  0  0  0
 21 18  1  0  0  0  0
 22 21  1  0  0  0  0
 23 24  1  0  0  0  0
 23 19  1  0  0  0  0
M  END
>  <MODEL>
4

>  <REMARK>
 VINA RESULT:    -7.116     13.241     15.978
 INTER + INTRA:          -9.971
 INTER:                  -9.501
 INTRA:                  -0.470
 UNBOUND:                -0.359
  Name = CHEMBL3617003
  8 active torsions:
  status: ('A' for Active; 'I' for Inactive)
    1  A    between atoms: C_1  and  O_2
    2  A    between atoms: O_2  and  C_3
    3  A    between atoms: C_6  and  C_7
    4  A    between atoms: C_7  and  C_8
    5  A    between atoms: N_10  and  C_11
    6  A    between atoms: C_11  and  C_12
    7  A    between atoms: C_15  and  O_16
    8  A    between atoms: C_17  and  O_18
                            x       y       z     vdW  Elec       q    Type
                         _______ _______ _______ _____ _____    ______ ____

>  <TORSDO>
F 7

>  <SCORE>
-7.116

>  <RMSD_LB>
13.241

>  <RMSD_UB>
15.978

$$$$
CHEMBL3617003
 OpenBabel10162523443D

 24 25  0  0  0  0  0  0  0  0999 V2000
  134.5040  134.6150  153.1210 C   0  0  0  0  0  0  0  0  0  0  0  0
  134.0950  133.5130  153.4870 O   0  0  0  0  0  0  0  0  0  0  0  0
  133.8870  135.3470  152.1270 N   0  0  0  0  0  0  0  0  0  0  0  0
  134.2140  136.2490  151.9080 H   0  0  0  0  0  0  0  0  0  0  0  0
  135.7380  135.2590  153.7260 C   0  0  0  0  0  2  0  0  0  0  0  0
  135.7490  135.3960  158.0630 C   0  0  0  0  0  0  0  0  0  0  0  0
  136.8500  135.8710  157.3520 C   0  0  0  0  0  3  0  0  0  0  0  0
  136.8700  135.8210  155.9540 C   0  0  0  0  0  3  0  0  0  0  0  0
  135.7870  135.2980  155.2380 C   0  0  0  0  0  0  0  0  0  0  0  0
  134.6920  134.8020  155.9620 C   0  0  0  0  0  3  0  0  0  0  0  0
  134.6750  134.8520  157.3590 C   0  0  0  0  0  3  0  0  0  0  0  0
  134.4260  134.8130  159.9440 C   0  0  0  0  0  1  0  0  0  0  0  0
  135.6130  135.4030  159.4240 O   0  0  0  0  0  0  0  0  0  0  0  0
  132.7640  134.7920  151.4050 C   0  0  0  0  0  2  0  0  0  0  0  0
  133.1740  134.2600  150.0570 C   0  0  0  0  0  0  0  0  0  0  0  0
  133.7410  132.9770  149.9520 C   0  0  0  0  0  3  0  0  0  0  0  0
  134.1570  132.4710  148.7170 C   0  0  0  0  0  3  0  0  0  0  0  0
  133.9880  133.2490  147.5790 C   0  0  0  0  0  0  0  0  0  0  0  0
  133.4060  134.5110  147.6700 C   0  0  0  0  0  0  0  0  0  0  0  0
  132.9990  135.0260  148.8950 C   0  0  0  0  0  3  0  0  0  0  0  0
  134.3820  132.8160  146.3420 O   0  0  0  0  0  0  0  0  0  0  0  0
  133.8410  132.2200  145.8610 H   0  0  0  0  0  0  0  0  0  0  0  0
  133.2320  135.2610  146.5410 O   0  0  0  0  0  0  0  0  0  0  0  0
  132.7450  134.9150  145.8200 H   0  0  0  0  0  0  0  0  0  0  0  0
  1  2  2  0  0  0  0
  1  5  1  0  0  0  0
  3  1  1  0  0  0  0
  4  3  1  0  0  0  0
  5  9  1  0  0  0  0
  6 13  1  0  0  0  0
  7  6  2  0  0  0  0
  8  7  1  0  0  0  0
  9  8  2  0  0  0  0
  9 10  1  0  0  0  0
 10 11  2  0  0  0  0
 11  6  1  0  0  0  0
 13 12  1  0  0  0  0
 14  3  1  0  0  0  0
 15 14  1  0  0  0  0
 16 15  1  0  0  0  0
 17 16  2  0  0  0  0
 18 19  2  0  0  0  0
 18 17  1  0  0  0  0
 19 20  1  0  0  0  0
 20 15  2  0  0  0  0
 21 18  1  0  0  0  0
 22 21  1  0  0  0  0
 23 19  1  0  0  0  0
 24 23  1  0  0  0  0
M  END
>  <MODEL>
5

>  <REMARK>
 VINA RESULT:    -6.987     14.351     16.891
 INTER + INTRA:          -9.796
 INTER:                  -9.790
 INTRA:                  -0.006
 UNBOUND:                -0.359
  Name = CHEMBL3617003
  8 active torsions:
  status: ('A' for Active; 'I' for Inactive)
    1  A    between atoms: C_1  and  O_2
    2  A    between atoms: O_2  and  C_3
    3  A    between atoms: C_6  and  C_7
    4  A    between atoms: C_7  and  C_8
    5  A    between atoms: N_10  and  C_11
    6  A    between atoms: C_11  and  C_12
    7  A    between atoms: C_15  and  O_16
    8  A    between atoms: C_17  and  O_18
                            x       y       z     vdW  Elec       q    Type
                         _______ _______ _______ _____ _____    ______ ____

>  <TORSDO>
F 7

>  <SCORE>
-6.987

>  <RMSD_LB>
14.351

>  <RMSD_UB>
16.891

$$$$
CHEMBL3617003
 OpenBabel10162523443D

 24 25  0  0  0  0  0  0  0  0999 V2000
  145.0380  140.4180  149.2080 C   0  0  0  0  0  0  0  0  0  0  0  0
  144.1560  140.7520  150.0010 O   0  0  0  0  0  0  0  0  0  0  0  0
  146.1850  141.1580  149.0120 N   0  0  0  0  0  0  0  0  0  0  0  0
  146.8890  140.8220  148.4130 H   0  0  0  0  0  0  0  0  0  0  0  0
  144.9270  139.1610  148.3630 C   0  0  0  0  0  2  0  0  0  0  0  0
  147.4890  135.8300  149.4400 C   0  0  0  0  0  0  0  0  0  0  0  0
  146.3040  136.0470  150.1420 C   0  0  0  0  0  3  0  0  0  0  0  0
  145.4740  137.1260  149.8180 C   0  0  0  0  0  3  0  0  0  0  0  0
  145.8090  138.0050  148.7830 C   0  0  0  0  0  0  0  0  0  0  0  0
  147.0150  137.7920  148.0960 C   0  0  0  0  0  3  0  0  0  0  0  0
  147.8430  136.7140  148.4220 C   0  0  0  0  0  3  0  0  0  0  0  0
  148.5910  133.9170  148.5700 C   0  0  0  0  0  1  0  0  0  0  0  0
  148.3710  134.8080  149.6590 O   0  0  0  0  0  0  0  0  0  0  0  0
  146.3560  142.4280  149.6840 C   0  0  0  0  0  2  0  0  0  0  0  0
  146.9380  142.2570  151.0620 C   0  0  0  0  0  0  0  0  0  0  0  0
  148.3190  142.0350  151.2170 C   0  0  0  0  0  3  0  0  0  0  0  0
  148.8810  141.8440  152.4830 C   0  0  0  0  0  3  0  0  0  0  0  0
  148.0570  141.8930  153.6000 C   0  0  0  0  0  0  0  0  0  0  0  0
  146.6930  142.1360  153.4580 C   0  0  0  0  0  0  0  0  0  0  0  0
  146.1250  142.3160  152.2030 C   0  0  0  0  0  3  0  0  0  0  0  0
  148.5440  141.7060  154.8650 O   0  0  0  0  0  0  0  0  0  0  0  0
  148.2090  141.0100  155.3970 H   0  0  0  0  0  0  0  0  0  0  0  0
  145.8960  142.1960  154.5650 O   0  0  0  0  0  0  0  0  0  0  0  0
  145.8290  141.4550  155.1340 H   0  0  0  0  0  0  0  0  0  0  0  0
  1  2  2  0  0  0  0
  3  1  1  0  0  0  0
  3 14  1  0  0  0  0
  4  3  1  0  0  0  0
  5  9  1  0  0  0  0
  5  1  1  0  0  0  0
  6 13  1  0  0  0  0
  6  7  1  0  0  0  0
  8  7  2  0  0  0  0
  9  8  1  0  0  0  0
 10 11  1  0  0  0  0
 10  9  2  0  0  0  0
 11  6  2  0  0  0  0
 12 13  1  0  0  0  0
 14 15  1  0  0  0  0
 15 16  2  0  0  0  0
 15 20  1  0  0  0  0
 16 17  1  0  0  0  0
 17 18  2  0  0  0  0
 18 21  1  0  0  0  0
 19 18  1  0  0  0  0
 19 23  1  0  0  0  0
 20 19  2  0  0  0  0
 21 22  1  0  0  0  0
 23 24  1  0  0  0  0
M  END
>  <MODEL>
6

>  <REMARK>
 VINA RESULT:    -6.964      2.292      2.866
 INTER + INTRA:          -9.765
 INTER:                  -9.246
 INTRA:                  -0.519
 UNBOUND:                -0.359
  Name = CHEMBL3617003
  8 active torsions:
  status: ('A' for Active; 'I' for Inactive)
    1  A    between atoms: C_1  and  O_2
    2  A    between atoms: O_2  and  C_3
    3  A    between atoms: C_6  and  C_7
    4  A    between atoms: C_7  and  C_8
    5  A    between atoms: N_10  and  C_11
    6  A    between atoms: C_11  and  C_12
    7  A    between atoms: C_15  and  O_16
    8  A    between atoms: C_17  and  O_18
                            x       y       z     vdW  Elec       q    Type
                         _______ _______ _______ _____ _____    ______ ____

>  <TORSDO>
F 7

>  <SCORE>
-6.964

>  <RMSD_LB>
2.292

>  <RMSD_UB>
2.866

$$$$
CHEMBL3617003
 OpenBabel10162523443D

 24 25  0  0  0  0  0  0  0  0999 V2000
  138.2030  136.5460  149.2670 C   0  0  0  0  0  0  0  0  0  0  0  0
  137.4100  137.3390  148.7570 O   0  0  0  0  0  0  0  0  0  0  0  0
  137.9090  135.2110  149.4490 N   0  0  0  0  0  0  0  0  0  0  0  0
  138.5950  134.6020  149.8070 H   0  0  0  0  0  0  0  0  0  0  0  0
  139.5740  136.9790  149.7550 C   0  0  0  0  0  2  0  0  0  0  0  0
  139.8780  138.2630  153.8880 C   0  0  0  0  0  0  0  0  0  0  0  0
  138.6230  138.0930  153.3070 C   0  0  0  0  0  3  0  0  0  0  0  0
  138.5060  137.6940  151.9710 C   0  0  0  0  0  3  0  0  0  0  0  0
  139.6430  137.4530  151.1910 C   0  0  0  0  0  0  0  0  0  0  0  0
  140.9030  137.6480  151.7780 C   0  0  0  0  0  3  0  0  0  0  0  0
  141.0160  138.0480  153.1130 C   0  0  0  0  0  3  0  0  0  0  0  0
  139.6910  137.7290  156.1920 C   0  0  0  0  0  1  0  0  0  0  0  0
  140.1150  138.6380  155.1820 O   0  0  0  0  0  0  0  0  0  0  0  0
  136.5960  134.7030  149.1190 C   0  0  0  0  0  2  0  0  0  0  0  0
  135.7020  134.6350  150.3280 C   0  0  0  0  0  0  0  0  0  0  0  0
  136.2580  134.7320  151.6170 C   0  0  0  0  0  3  0  0  0  0  0  0
  135.4540  134.6420  152.7580 C   0  0  0  0  0  3  0  0  0  0  0  0
  134.0840  134.4730  152.6050 C   0  0  0  0  0  0  0  0  0  0  0  0
  133.5220  134.4000  151.3330 C   0  0  0  0  0  0  0  0  0  0  0  0
  134.3150  134.4770  150.1940 C   0  0  0  0  0  3  0  0  0  0  0  0
  133.2440  134.3700  153.6810 O   0  0  0  0  0  0  0  0  0  0  0  0
  133.0730  133.5310  154.0610 H   0  0  0  0  0  0  0  0  0  0  0  0
  132.1720  134.2480  151.1950 O   0  0  0  0  0  0  0  0  0  0  0  0
  131.5960  134.5310  151.8780 H   0  0  0  0  0  0  0  0  0  0  0  0
  1  3  1  0  0  0  0
  1  5  1  0  0  0  0
  2  1  2  0  0  0  0
  3  4  1  0  0  0  0
  5  9  1  0  0  0  0
  6 13  1  0  0  0  0
  7  6  1  0  0  0  0
  8  7  2  0  0  0  0
  9 10  2  0  0  0  0
  9  8  1  0  0  0  0
 10 11  1  0  0  0  0
 11  6  2  0  0  0  0
 13 12  1  0  0  0  0
 14  3  1  0  0  0  0
 14 15  1  0  0  0  0
 15 16  1  0  0  0  0
 16 17  2  0  0  0  0
 18 17  1  0  0  0  0
 18 21  1  0  0  0  0
 19 18  2  0  0  0  0
 20 15  2  0  0  0  0
 20 19  1  0  0  0  0
 21 22  1  0  0  0  0
 23 19  1  0  0  0  0
 23 24  1  0  0  0  0
M  END
>  <MODEL>
7

>  <REMARK>
 VINA RESULT:    -6.847     10.905     12.985
 INTER + INTRA:          -9.608
 INTER:                  -8.808
 INTRA:                  -0.801
 UNBOUND:                -0.359
  Name = CHEMBL3617003
  8 active torsions:
  status: ('A' for Active; 'I' for Inactive)
    1  A    between atoms: C_1  and  O_2
    2  A    between atoms: O_2  and  C_3
    3  A    between atoms: C_6  and  C_7
    4  A    between atoms: C_7  and  C_8
    5  A    between atoms: N_10  and  C_11
    6  A    between atoms: C_11  and  C_12
    7  A    between atoms: C_15  and  O_16
    8  A    between atoms: C_17  and  O_18
                            x       y       z     vdW  Elec       q    Type
                         _______ _______ _______ _____ _____    ______ ____

>  <TORSDO>
F 7

>  <SCORE>
-6.847

>  <RMSD_LB>
10.905

>  <RMSD_UB>
12.985

$$$$
CHEMBL3617003
 OpenBabel10162523443D

 24 25  0  0  0  0  0  0  0  0999 V2000
  139.5180  137.4970  156.5170 C   0  0  0  0  0  0  0  0  0  0  0  0
  140.5350  136.8670  156.8060 O   0  0  0  0  0  0  0  0  0  0  0  0
  139.4390  138.3230  155.4150 N   0  0  0  0  0  0  0  0  0  0  0  0
  138.5870  138.7610  155.1900 H   0  0  0  0  0  0  0  0  0  0  0  0
  138.2600  137.4300  157.3650 C   0  0  0  0  0  2  0  0  0  0  0  0
  135.1080  134.9080  155.7760 C   0  0  0  0  0  0  0  0  0  0  0  0
  135.1980  135.1210  157.1510 C   0  0  0  0  0  3  0  0  0  0  0  0
  136.2170  135.9190  157.6820 C   0  0  0  0  0  3  0  0  0  0  0  0
  137.1640  136.5240  156.8480 C   0  0  0  0  0  0  0  0  0  0  0  0
  137.0800  136.2860  155.4670 C   0  0  0  0  0  3  0  0  0  0  0  0
  136.0610  135.4870  154.9400 C   0  0  0  0  0  3  0  0  0  0  0  0
  134.3820  133.8730  153.7680 C   0  0  0  0  0  1  0  0  0  0  0  0
  134.1540  134.1590  155.1440 O   0  0  0  0  0  0  0  0  0  0  0  0
  140.6050  138.5480  154.5900 C   0  0  0  0  0  2  0  0  0  0  0  0
  140.3890  138.0780  153.1760 C   0  0  0  0  0  0  0  0  0  0  0  0
  141.4870  137.6670  152.3980 C   0  0  0  0  0  3  0  0  0  0  0  0
  141.3170  137.2540  151.0730 C   0  0  0  0  0  3  0  0  0  0  0  0
  140.0390  137.2370  150.5310 C   0  0  0  0  0  0  0  0  0  0  0  0
  138.9430  137.6200  151.3010 C   0  0  0  0  0  0  0  0  0  0  0  0
  139.1040  138.0430  152.6150 C   0  0  0  0  0  3  0  0  0  0  0  0
  139.8070  136.8520  149.2380 O   0  0  0  0  0  0  0  0  0  0  0  0
  139.9330  135.9580  148.9870 H   0  0  0  0  0  0  0  0  0  0  0  0
  137.6890  137.5860  150.7610 O   0  0  0  0  0  0  0  0  0  0  0  0
  137.5500  137.1890  149.9240 H   0  0  0  0  0  0  0  0  0  0  0  0
  1  2  2  0  0  0  0
  1  5  1  0  0  0  0
  3  1  1  0  0  0  0
  4  3  1  0  0  0  0
  6  7  1  0  0  0  0
  7  8  2  0  0  0  0
  9  5  1  0  0  0  0
  9  8  1  0  0  0  0
 10  9  2  0  0  0  0
 11 10  1  0  0  0  0
 11  6  2  0  0  0  0
 12 13  1  0  0  0  0
 13  6  1  0  0  0  0
 14  3  1  0  0  0  0
 15 14  1  0  0  0  0
 16 15  2  0  0  0  0
 17 16  1  0  0  0  0
 18 17  2  0  0  0  0
 18 19  1  0  0  0  0
 19 20  2  0  0  0  0
 20 15  1  0  0  0  0
 21 18  1  0  0  0  0
 22 21  1  0  0  0  0
 23 19  1  0  0  0  0
 24 23  1  0  0  0  0
M  END
>  <MODEL>
8

>  <REMARK>
 VINA RESULT:    -6.843     10.461     13.195
 INTER + INTRA:          -9.602
 INTER:                  -9.119
 INTRA:                  -0.483
 UNBOUND:                -0.359
  Name = CHEMBL3617003
  8 active torsions:
  status: ('A' for Active; 'I' for Inactive)
    1  A    between atoms: C_1  and  O_2
    2  A    between atoms: O_2  and  C_3
    3  A    between atoms: C_6  and  C_7
    4  A    between atoms: C_7  and  C_8
    5  A    between atoms: N_10  and  C_11
    6  A    between atoms: C_11  and  C_12
    7  A    between atoms: C_15  and  O_16
    8  A    between atoms: C_17  and  O_18
                            x       y       z     vdW  Elec       q    Type
                         _______ _______ _______ _____ _____    ______ ____

>  <TORSDO>
F 7

>  <SCORE>
-6.843

>  <RMSD_LB>
10.461

>  <RMSD_UB>
13.195

$$$$
CHEMBL3617003
 OpenBabel10162523443D

 24 25  0  0  0  0  0  0  0  0999 V2000
  133.9910  134.7720  152.8630 C   0  0  0  0  0  0  0  0  0  0  0  0
  134.0830  133.6220  153.2940 O   0  0  0  0  0  0  0  0  0  0  0  0
  134.5210  135.8610  153.5230 N   0  0  0  0  0  0  0  0  0  0  0  0
  134.4740  136.7540  153.1120 H   0  0  0  0  0  0  0  0  0  0  0  0
  133.2680  135.0910  151.5660 C   0  0  0  0  0  2  0  0  0  0  0  0
  134.8430  133.0500  148.0770 C   0  0  0  0  0  0  0  0  0  0  0  0
  135.1290  134.3990  148.2780 C   0  0  0  0  0  3  0  0  0  0  0  0
  134.6160  135.0770  149.3890 C   0  0  0  0  0  3  0  0  0  0  0  0
  133.8120  134.4170  150.3250 C   0  0  0  0  0  0  0  0  0  0  0  0
  133.5110  133.0640  150.1040 C   0  0  0  0  0  3  0  0  0  0  0  0
  134.0230  132.3900  148.9920 C   0  0  0  0  0  3  0  0  0  0  0  0
  135.7780  132.9840  145.8970 C   0  0  0  0  0  1  0  0  0  0  0  0
  135.2940  132.2830  147.0380 O   0  0  0  0  0  0  0  0  0  0  0  0
  135.1420  135.6960  154.8190 C   0  0  0  0  0  2  0  0  0  0  0  0
  136.3680  136.5570  154.9650 C   0  0  0  0  0  0  0  0  0  0  0  0
  137.1020  136.9320  153.8240 C   0  0  0  0  0  3  0  0  0  0  0  0
  138.2600  137.7060  153.9340 C   0  0  0  0  0  3  0  0  0  0  0  0
  138.6760  138.1220  155.1920 C   0  0  0  0  0  0  0  0  0  0  0  0
  137.9430  137.7760  156.3250 C   0  0  0  0  0  0  0  0  0  0  0  0
  136.7960  136.9970  156.2250 C   0  0  0  0  0  3  0  0  0  0  0  0
  139.8050  138.8740  155.3680 O   0  0  0  0  0  0  0  0  0  0  0  0
  139.8030  139.5860  155.9790 H   0  0  0  0  0  0  0  0  0  0  0  0
  138.3530  138.2030  157.5550 O   0  0  0  0  0  0  0  0  0  0  0  0
  138.2070  137.6670  158.3100 H   0  0  0  0  0  0  0  0  0  0  0  0
  1  2  2  0  0  0  0
  1  3  1  0  0  0  0
  3 14  1  0  0  0  0
  4  3  1  0  0  0  0
  5  1  1  0  0  0  0
  6  7  2  0  0  0  0
  6 11  1  0  0  0  0
  7  8  1  0  0  0  0
  8  9  2  0  0  0  0
  9  5  1  0  0  0  0
 10  9  1  0  0  0  0
 11 10  2  0  0  0  0
 12 13  1  0  0  0  0
 13  6  1  0  0  0  0
 14 15  1  0  0  0  0
 15 20  1  0  0  0  0
 16 17  1  0  0  0  0
 16 15  2  0  0  0  0
 17 18  2  0  0  0  0
 18 21  1  0  0  0  0
 18 19  1  0  0  0  0
 19 23  1  0  0  0  0
 20 19  2  0  0  0  0
 21 22  1  0  0  0  0
 23 24  1  0  0  0  0
M  END
>  <MODEL>
9

>  <REMARK>
 VINA RESULT:    -6.683     12.427     13.731
 INTER + INTRA:          -9.386
 INTER:                  -9.027
 INTRA:                  -0.359
 UNBOUND:                -0.359
  Name = CHEMBL3617003
  8 active torsions:
  status: ('A' for Active; 'I' for Inactive)
    1  A    between atoms: C_1  and  O_2
    2  A    between atoms: O_2  and  C_3
    3  A    between atoms: C_6  and  C_7
    4  A    between atoms: C_7  and  C_8
    5  A    between atoms: N_10  and  C_11
    6  A    between atoms: C_11  and  C_12
    7  A    between atoms: C_15  and  O_16
    8  A    between atoms: C_17  and  O_18
                            x       y       z     vdW  Elec       q    Type
                         _______ _______ _______ _____ _____    ______ ____

>  <TORSDO>
F 7

>  <SCORE>
-6.683

>  <RMSD_LB>
12.427

>  <RMSD_UB>
13.731

$$$$
