CHEMBL309532
 OpenBabel10172500133D

 24 24  0  0  1  0  0  0  0  0999 V2000
  146.4520  140.1710  154.5970 N   0  0  0  0  0  0  0  0  0  0  0  0
  145.9920  138.9860  154.4650 C   0  0  1  0  0  3  0  0  0  0  0  0
  144.7620  138.5980  154.9060 N   0  0  0  0  0  0  0  0  0  0  0  0
  145.8650  140.8530  154.9980 H   0  0  0  0  0  0  0  0  0  0  0  0
  144.6280  137.6380  155.0820 H   0  0  0  0  0  0  0  0  0  0  0  0
  146.8150  137.6350  153.6960 S   0  0  0  0  0  0  0  0  0  0  0  0
  145.9240  136.9220  152.9570 H   0  0  0  0  0  0  0  0  0  0  0  0
  147.7960  140.5770  154.1900 C   0  0  0  0  0  2  0  0  0  0  0  0
  147.7230  141.5200  152.9880 C   0  0  0  0  0  2  0  0  0  0  0  0
  146.4070  142.3040  152.9640 C   0  0  0  0  0  2  0  0  0  0  0  0
  145.6470  142.0780  151.6600 C   0  0  0  0  0  2  0  0  0  0  0  0
  146.4460  141.7850  149.2970 C   0  0  0  0  0  1  0  0  0  0  0  0
  146.3670  142.7320  150.4830 C   0  0  0  0  0  2  0  0  0  0  0  0
  143.6380  139.4760  155.1360 C   0  0  0  0  0  2  0  0  0  0  0  0
  142.4090  138.9540  154.4130 C   0  0  0  0  0  0  0  0  0  0  0  0
  142.5450  138.2860  153.1920 C   0  0  0  0  0  3  0  0  0  0  0  0
  141.4230  137.8320  152.4960 C   0  0  0  0  0  3  0  0  0  0  0  0
  140.1390  138.0480  153.0050 C   0  0  0  0  0  0  0  0  0  0  0  0
  139.9690  138.7190  154.2220 C   0  0  0  0  0  0  0  0  0  0  0  0
  141.1110  139.1610  154.9150 C   0  0  0  0  0  3  0  0  0  0  0  0
  139.0750  137.5880  152.2810 O   0  0  0  0  0  0  0  0  0  0  0  0
  138.2220  137.9500  152.4210 H   0  0  0  0  0  0  0  0  0  0  0  0
  138.7910  139.0230  154.8570 O   0  0  0  0  0  0  0  0  0  0  0  0
  138.3100  138.1190  155.8440 C   0  0  0  0  0  1  0  0  0  0  0  0
  1  4  1  0  0  0  0
  2  6  1  6  0  0  0
  2  1  1  0  0  0  0
  2  3  1  0  0  0  0
  3  5  1  0  0  0  0
  3 14  1  0  0  0  0
  7  6  1  0  0  0  0
  8  1  1  0  0  0  0
  9  8  1  0  0  0  0
 10  9  1  0  0  0  0
 11 10  1  0  0  0  0
 12 13  1  0  0  0  0
 13 11  1  0  0  0  0
 15 20  1  0  0  0  0
 15 14  1  0  0  0  0
 16 15  2  0  0  0  0
 17 18  2  0  0  0  0
 17 16  1  0  0  0  0
 18 19  1  0  0  0  0
 19 23  1  0  0  0  0
 19 20  2  0  0  0  0
 21 22  1  0  0  0  0
 21 18  1  0  0  0  0
 23 24  1  0  0  0  0
M  END
>  <MODEL>
1

>  <REMARK>
 VINA RESULT:    -5.790      0.000      0.000
 INTER + INTRA:          -9.920
 INTER:                  -9.313
 INTRA:                  -0.607
 UNBOUND:                -1.084
  Name = CHEMBL309532
  12 active torsions:
  status: ('A' for Active; 'I' for Inactive)
    1  A    between atoms: C_1  and  C_2
    2  A    between atoms: C_2  and  C_3
    3  A    between atoms: C_3  and  C_4
    4  A    between atoms: C_4  and  C_5
    5  A    between atoms: C_5  and  C_6
    6  A    between atoms: C_6  and  N_7
    7  A    between atoms: C_8  and  S_9
    8  A    between atoms: N_10  and  C_11
    9  A    between atoms: C_11  and  C_12
   10  A    between atoms: C_15  and  O_16
   11  A    between atoms: C_17  and  O_18
   12  A    between atoms: O_18  and  C_19
                            x       y       z     vdW  Elec       q    Type
                         _______ _______ _______ _____ _____    ______ ____

>  <TORSDO>
F 10

>  <SCORE>
-5.790

>  <RMSD_LB>
0.000

>  <RMSD_UB>
0.000

$$$$
CHEMBL309532
 OpenBabel10172500133D

 24 24  0  0  1  0  0  0  0  0999 V2000
  144.3090  140.6040  149.3950 N   0  0  0  0  0  0  0  0  0  0  0  0
  145.4880  140.5760  148.9010 C   0  0  1  0  0  3  0  0  0  0  0  0
  146.3510  141.6310  148.9420 N   0  0  0  0  0  0  0  0  0  0  0  0
  144.0280  141.4170  149.8730 H   0  0  0  0  0  0  0  0  0  0  0  0
  147.0650  141.6560  148.2640 H   0  0  0  0  0  0  0  0  0  0  0  0
  146.2400  139.2070  148.0930 S   0  0  0  0  0  0  0  0  0  0  0  0
  145.3210  138.2190  147.9260 H   0  0  0  0  0  0  0  0  0  0  0  0
  143.3540  139.5020  149.2940 C   0  0  0  0  0  2  0  0  0  0  0  0
  141.9720  139.9540  149.7690 C   0  0  0  0  0  2  0  0  0  0  0  0
  140.9910  138.7810  149.8510 C   0  0  0  0  0  2  0  0  0  0  0  0
  141.6580  137.5350  150.4260 C   0  0  0  0  0  2  0  0  0  0  0  0
  142.7670  137.5570  152.6800 C   0  0  0  0  0  1  0  0  0  0  0  0
  141.4470  137.4450  151.9360 C   0  0  0  0  0  2  0  0  0  0  0  0
  146.3060  142.7150  149.8970 C   0  0  0  0  0  2  0  0  0  0  0  0
  146.9530  142.2890  151.2030 C   0  0  0  0  0  0  0  0  0  0  0  0
  148.3470  142.2440  151.3130 C   0  0  0  0  0  3  0  0  0  0  0  0
  148.9570  141.8200  152.4940 C   0  0  0  0  0  3  0  0  0  0  0  0
  148.1830  141.4220  153.5880 C   0  0  0  0  0  0  0  0  0  0  0  0
  146.7860  141.4500  153.5080 C   0  0  0  0  0  0  0  0  0  0  0  0
  146.1870  141.8890  152.3130 C   0  0  0  0  0  3  0  0  0  0  0  0
  148.8310  141.0100  154.7190 O   0  0  0  0  0  0  0  0  0  0  0  0
  148.7100  141.4760  155.5230 H   0  0  0  0  0  0  0  0  0  0  0  0
  145.8800  141.0880  154.4730 O   0  0  0  0  0  0  0  0  0  0  0  0
  145.3650  139.7620  154.4430 C   0  0  0  0  0  1  0  0  0  0  0  0
  1  4  1  0  0  0  0
  2  6  1  1  0  0  0
  2  3  1  0  0  0  0
  2  1  1  0  0  0  0
  3 14  1  0  0  0  0
  5  3  1  0  0  0  0
  7  6  1  0  0  0  0
  8  1  1  0  0  0  0
  8  9  1  0  0  0  0
  9 10  1  0  0  0  0
 10 11  1  0  0  0  0
 11 13  1  0  0  0  0
 13 12  1  0  0  0  0
 14 15  1  0  0  0  0
 15 16  2  0  0  0  0
 15 20  1  0  0  0  0
 16 17  1  0  0  0  0
 17 18  2  0  0  0  0
 18 21  1  0  0  0  0
 19 18  1  0  0  0  0
 19 23  1  0  0  0  0
 20 19  2  0  0  0  0
 21 22  1  0  0  0  0
 24 23  1  0  0  0  0
M  END
>  <MODEL>
2

>  <REMARK>
 VINA RESULT:    -5.729      3.958      7.176
 INTER + INTRA:          -9.827
 INTER:                  -9.081
 INTRA:                  -0.746
 UNBOUND:                -1.084
  Name = CHEMBL309532
  12 active torsions:
  status: ('A' for Active; 'I' for Inactive)
    1  A    between atoms: C_1  and  C_2
    2  A    between atoms: C_2  and  C_3
    3  A    between atoms: C_3  and  C_4
    4  A    between atoms: C_4  and  C_5
    5  A    between atoms: C_5  and  C_6
    6  A    between atoms: C_6  and  N_7
    7  A    between atoms: C_8  and  S_9
    8  A    between atoms: N_10  and  C_11
    9  A    between atoms: C_11  and  C_12
   10  A    between atoms: C_15  and  O_16
   11  A    between atoms: C_17  and  O_18
   12  A    between atoms: O_18  and  C_19
                            x       y       z     vdW  Elec       q    Type
                         _______ _______ _______ _____ _____    ______ ____

>  <TORSDO>
F 10

>  <SCORE>
-5.729

>  <RMSD_LB>
3.958

>  <RMSD_UB>
7.176

$$$$
CHEMBL309532
 OpenBabel10172500133D

 24 24  0  0  1  0  0  0  0  0999 V2000
  144.4240  140.4660  151.6350 N   0  0  0  0  0  0  0  0  0  0  0  0
  143.9950  139.2880  151.3790 C   0  0  1  0  0  3  0  0  0  0  0  0
  143.4900  138.4450  152.3230 N   0  0  0  0  0  0  0  0  0  0  0  0
  144.3400  140.7970  152.5590 H   0  0  0  0  0  0  0  0  0  0  0  0
  143.5140  137.4800  152.1260 H   0  0  0  0  0  0  0  0  0  0  0  0
  143.9520  138.5230  149.7960 S   0  0  0  0  0  0  0  0  0  0  0  0
  144.0920  137.1780  149.9390 H   0  0  0  0  0  0  0  0  0  0  0  0
  145.0300  141.3490  150.6410 C   0  0  0  0  0  2  0  0  0  0  0  0
  145.5480  142.6230  151.3110 C   0  0  0  0  0  2  0  0  0  0  0  0
  146.5850  142.3110  152.3950 C   0  0  0  0  0  2  0  0  0  0  0  0
  147.9290  141.9240  151.7850 C   0  0  0  0  0  2  0  0  0  0  0  0
  148.5600  141.5880  154.1920 C   0  0  0  0  0  1  0  0  0  0  0  0
  149.0490  142.0150  152.8190 C   0  0  0  0  0  2  0  0  0  0  0  0
  142.9240  138.8470  153.5910 C   0  0  0  0  0  2  0  0  0  0  0  0
  141.4450  138.5060  153.6340 C   0  0  0  0  0  0  0  0  0  0  0  0
  140.7770  138.1290  152.4640 C   0  0  0  0  0  3  0  0  0  0  0  0
  139.4100  137.8480  152.4800 C   0  0  0  0  0  3  0  0  0  0  0  0
  138.6800  137.9480  153.6680 C   0  0  0  0  0  0  0  0  0  0  0  0
  139.3170  138.3280  154.8550 C   0  0  0  0  0  0  0  0  0  0  0  0
  140.6980  138.5990  154.8230 C   0  0  0  0  0  3  0  0  0  0  0  0
  137.3430  137.6660  153.6270 O   0  0  0  0  0  0  0  0  0  0  0  0
  136.7580  138.2420  153.1750 H   0  0  0  0  0  0  0  0  0  0  0  0
  138.7570  138.4860  156.0970 O   0  0  0  0  0  0  0  0  0  0  0  0
  138.6360  137.3370  156.9270 C   0  0  0  0  0  1  0  0  0  0  0  0
  1  4  1  0  0  0  0
  2  6  1  6  0  0  0
  2  1  1  0  0  0  0
  2  3  1  0  0  0  0
  3 14  1  0  0  0  0
  5  3  1  0  0  0  0
  6  7  1  0  0  0  0
  8  9  1  0  0  0  0
  8  1  1  0  0  0  0
  9 10  1  0  0  0  0
 11 10  1  0  0  0  0
 11 13  1  0  0  0  0
 13 12  1  0  0  0  0
 14 15  1  0  0  0  0
 15 20  1  0  0  0  0
 16 17  1  0  0  0  0
 16 15  2  0  0  0  0
 17 18  2  0  0  0  0
 18 19  1  0  0  0  0
 19 23  1  0  0  0  0
 20 19  2  0  0  0  0
 21 18  1  0  0  0  0
 22 21  1  0  0  0  0
 23 24  1  0  0  0  0
M  END
>  <MODEL>
3

>  <REMARK>
 VINA RESULT:    -5.706      2.014      2.840
 INTER + INTRA:          -9.791
 INTER:                  -9.314
 INTRA:                  -0.478
 UNBOUND:                -1.084
  Name = CHEMBL309532
  12 active torsions:
  status: ('A' for Active; 'I' for Inactive)
    1  A    between atoms: C_1  and  C_2
    2  A    between atoms: C_2  and  C_3
    3  A    between atoms: C_3  and  C_4
    4  A    between atoms: C_4  and  C_5
    5  A    between atoms: C_5  and  C_6
    6  A    between atoms: C_6  and  N_7
    7  A    between atoms: C_8  and  S_9
    8  A    between atoms: N_10  and  C_11
    9  A    between atoms: C_11  and  C_12
   10  A    between atoms: C_15  and  O_16
   11  A    between atoms: C_17  and  O_18
   12  A    between atoms: O_18  and  C_19
                            x       y       z     vdW  Elec       q    Type
                         _______ _______ _______ _____ _____    ______ ____

>  <TORSDO>
F 10

>  <SCORE>
-5.706

>  <RMSD_LB>
2.014

>  <RMSD_UB>
2.840

$$$$
CHEMBL309532
 OpenBabel10172500133D

 24 24  0  0  1  0  0  0  0  0999 V2000
  145.0430  138.7390  149.7990 N   0  0  0  0  0  0  0  0  0  0  0  0
  145.3710  139.7200  149.0470 C   0  0  1  0  0  3  0  0  0  0  0  0
  145.1350  141.0260  149.3600 N   0  0  0  0  0  0  0  0  0  0  0  0
  144.6410  138.9430  150.6740 H   0  0  0  0  0  0  0  0  0  0  0  0
  145.0910  141.6680  148.6150 H   0  0  0  0  0  0  0  0  0  0  0  0
  146.1860  139.6060  147.4930 S   0  0  0  0  0  0  0  0  0  0  0  0
  145.4610  138.8150  146.6580 H   0  0  0  0  0  0  0  0  0  0  0  0
  145.2300  137.3350  149.4390 C   0  0  0  0  0  2  0  0  0  0  0  0
  146.5180  136.7950  150.0640 C   0  0  0  0  0  2  0  0  0  0  0  0
  146.2360  136.0000  151.3420 C   0  0  0  0  0  2  0  0  0  0  0  0
  146.5830  136.8090  152.5890 C   0  0  0  0  0  2  0  0  0  0  0  0
  144.3450  137.1920  153.6630 C   0  0  0  0  0  1  0  0  0  0  0  0
  145.6650  136.4450  153.7540 C   0  0  0  0  0  2  0  0  0  0  0  0
  144.9430  141.5470  150.6940 C   0  0  0  0  0  2  0  0  0  0  0  0
  146.2770  141.6440  151.4150 C   0  0  0  0  0  0  0  0  0  0  0  0
  147.3870  142.1930  150.7650 C   0  0  0  0  0  3  0  0  0  0  0  0
  148.6290  142.2560  151.3990 C   0  0  0  0  0  3  0  0  0  0  0  0
  148.7860  141.7610  152.6970 C   0  0  0  0  0  0  0  0  0  0  0  0
  147.6970  141.2000  153.3730 C   0  0  0  0  0  0  0  0  0  0  0  0
  146.4500  141.1530  152.7220 C   0  0  0  0  0  3  0  0  0  0  0  0
  150.0240  141.8430  153.2700 O   0  0  0  0  0  0  0  0  0  0  0  0
  150.1630  141.5090  154.1350 H   0  0  0  0  0  0  0  0  0  0  0  0
  147.6760  140.6620  154.6350 O   0  0  0  0  0  0  0  0  0  0  0  0
  148.0310  139.2930  154.7850 C   0  0  0  0  0  1  0  0  0  0  0  0
  1  4  1  0  0  0  0
  2  6  1  1  0  0  0
  2  3  1  0  0  0  0
  2  1  1  0  0  0  0
  3 14  1  0  0  0  0
  5  3  1  0  0  0  0
  7  6  1  0  0  0  0
  8  1  1  0  0  0  0
  8  9  1  0  0  0  0
  9 10  1  0  0  0  0
 10 11  1  0  0  0  0
 11 13  1  0  0  0  0
 12 13  1  0  0  0  0
 14 15  1  0  0  0  0
 15 20  1  0  0  0  0
 16 17  1  0  0  0  0
 16 15  2  0  0  0  0
 17 18  2  0  0  0  0
 18 21  1  0  0  0  0
 18 19  1  0  0  0  0
 19 23  1  0  0  0  0
 20 19  2  0  0  0  0
 21 22  1  0  0  0  0
 23 24  1  0  0  0  0
M  END
>  <MODEL>
4

>  <REMARK>
 VINA RESULT:    -5.486      4.583      7.282
 INTER + INTRA:          -9.457
 INTER:                  -8.596
 INTRA:                  -0.861
 UNBOUND:                -1.084
  Name = CHEMBL309532
  12 active torsions:
  status: ('A' for Active; 'I' for Inactive)
    1  A    between atoms: C_1  and  C_2
    2  A    between atoms: C_2  and  C_3
    3  A    between atoms: C_3  and  C_4
    4  A    between atoms: C_4  and  C_5
    5  A    between atoms: C_5  and  C_6
    6  A    between atoms: C_6  and  N_7
    7  A    between atoms: C_8  and  S_9
    8  A    between atoms: N_10  and  C_11
    9  A    between atoms: C_11  and  C_12
   10  A    between atoms: C_15  and  O_16
   11  A    between atoms: C_17  and  O_18
   12  A    between atoms: O_18  and  C_19
                            x       y       z     vdW  Elec       q    Type
                         _______ _______ _______ _____ _____    ______ ____

>  <TORSDO>
F 10

>  <SCORE>
-5.486

>  <RMSD_LB>
4.583

>  <RMSD_UB>
7.282

$$$$
CHEMBL309532
 OpenBabel10172500133D

 24 24  0  0  1  0  0  0  0  0999 V2000
  144.3700  139.7110  154.4650 N   0  0  0  0  0  0  0  0  0  0  0  0
  143.8380  138.5860  154.1670 C   0  0  1  0  0  3  0  0  0  0  0  0
  142.6510  138.1510  154.6770 N   0  0  0  0  0  0  0  0  0  0  0  0
  143.8680  140.3150  155.0600 H   0  0  0  0  0  0  0  0  0  0  0  0
  142.4910  137.1800  154.6820 H   0  0  0  0  0  0  0  0  0  0  0  0
  144.4960  137.3920  153.0570 S   0  0  0  0  0  0  0  0  0  0  0  0
  145.7600  137.0660  153.4380 H   0  0  0  0  0  0  0  0  0  0  0  0
  145.6740  140.1530  153.9770 C   0  0  0  0  0  2  0  0  0  0  0  0
  145.5000  141.2080  152.8830 C   0  0  0  0  0  2  0  0  0  0  0  0
  146.5730  142.2970  152.9710 C   0  0  0  0  0  2  0  0  0  0  0  0
  147.9420  141.7040  153.2950 C   0  0  0  0  0  2  0  0  0  0  0  0
  148.2030  142.3530  150.8830 C   0  0  0  0  0  1  0  0  0  0  0  0
  148.9270  141.9360  152.1520 C   0  0  0  0  0  2  0  0  0  0  0  0
  141.6080  138.9970  155.2110 C   0  0  0  0  0  2  0  0  0  0  0  0
  140.2470  138.3700  154.9620 C   0  0  0  0  0  0  0  0  0  0  0  0
  139.6980  138.3740  153.6750 C   0  0  0  0  0  3  0  0  0  0  0  0
  138.4330  137.8350  153.4350 C   0  0  0  0  0  3  0  0  0  0  0  0
  137.6870  137.2880  154.4840 C   0  0  0  0  0  0  0  0  0  0  0  0
  138.2050  137.2730  155.7830 C   0  0  0  0  0  0  0  0  0  0  0  0
  139.4860  137.8130  156.0050 C   0  0  0  0  0  3  0  0  0  0  0  0
  136.4520  136.7780  154.1950 O   0  0  0  0  0  0  0  0  0  0  0  0
  135.6890  137.3130  154.2970 H   0  0  0  0  0  0  0  0  0  0  0  0
  137.6100  136.7900  156.9210 O   0  0  0  0  0  0  0  0  0  0  0  0
  137.0250  137.7250  157.8190 C   0  0  0  0  0  1  0  0  0  0  0  0
  1  4  1  0  0  0  0
  2  6  1  6  0  0  0
  2  1  1  0  0  0  0
  2  3  1  0  0  0  0
  3  5  1  0  0  0  0
  3 14  1  0  0  0  0
  6  7  1  0  0  0  0
  8  1  1  0  0  0  0
  9 10  1  0  0  0  0
  9  8  1  0  0  0  0
 10 11  1  0  0  0  0
 12 13  1  0  0  0  0
 13 11  1  0  0  0  0
 15 14  1  0  0  0  0
 15 20  1  0  0  0  0
 16 15  2  0  0  0  0
 17 16  1  0  0  0  0
 17 18  2  0  0  0  0
 18 19  1  0  0  0  0
 19 20  2  0  0  0  0
 19 23  1  0  0  0  0
 21 22  1  0  0  0  0
 21 18  1  0  0  0  0
 23 24  1  0  0  0  0
M  END
>  <MODEL>
5

>  <REMARK>
 VINA RESULT:    -5.475      1.767      2.562
 INTER + INTRA:          -9.440
 INTER:                  -9.047
 INTRA:                  -0.393
 UNBOUND:                -1.084
  Name = CHEMBL309532
  12 active torsions:
  status: ('A' for Active; 'I' for Inactive)
    1  A    between atoms: C_1  and  C_2
    2  A    between atoms: C_2  and  C_3
    3  A    between atoms: C_3  and  C_4
    4  A    between atoms: C_4  and  C_5
    5  A    between atoms: C_5  and  C_6
    6  A    between atoms: C_6  and  N_7
    7  A    between atoms: C_8  and  S_9
    8  A    between atoms: N_10  and  C_11
    9  A    between atoms: C_11  and  C_12
   10  A    between atoms: C_15  and  O_16
   11  A    between atoms: C_17  and  O_18
   12  A    between atoms: O_18  and  C_19
                            x       y       z     vdW  Elec       q    Type
                         _______ _______ _______ _____ _____    ______ ____

>  <TORSDO>
F 10

>  <SCORE>
-5.475

>  <RMSD_LB>
1.767

>  <RMSD_UB>
2.562

$$$$
CHEMBL309532
 OpenBabel10172500133D

 24 24  0  0  1  0  0  0  0  0999 V2000
  145.0600  138.6610  150.2190 N   0  0  0  0  0  0  0  0  0  0  0  0
  145.0370  137.6120  150.9490 C   0  0  1  0  0  3  0  0  0  0  0  0
  143.9030  136.9080  151.2260 N   0  0  0  0  0  0  0  0  0  0  0  0
  144.2180  138.9480  149.7960 H   0  0  0  0  0  0  0  0  0  0  0  0
  143.9040  136.3530  152.0400 H   0  0  0  0  0  0  0  0  0  0  0  0
  146.4240  136.8590  151.7250 S   0  0  0  0  0  0  0  0  0  0  0  0
  147.5590  137.5100  151.3540 H   0  0  0  0  0  0  0  0  0  0  0  0
  146.2590  139.4610  149.9740 C   0  0  0  0  0  2  0  0  0  0  0  0
  145.8750  140.9100  149.6700 C   0  0  0  0  0  2  0  0  0  0  0  0
  144.9680  141.4950  150.7560 C   0  0  0  0  0  2  0  0  0  0  0  0
  145.6570  142.6340  151.5050 C   0  0  0  0  0  2  0  0  0  0  0  0
  147.7110  141.9300  152.7660 C   0  0  0  0  0  1  0  0  0  0  0  0
  146.2110  142.1560  152.8450 C   0  0  0  0  0  2  0  0  0  0  0  0
  142.7000  136.9060  150.4260 C   0  0  0  0  0  2  0  0  0  0  0  0
  141.5140  137.3500  151.2640 C   0  0  0  0  0  0  0  0  0  0  0  0
  141.6990  137.7280  152.5980 C   0  0  0  0  0  3  0  0  0  0  0  0
  140.6150  138.1030  153.3930 C   0  0  0  0  0  3  0  0  0  0  0  0
  139.3190  138.0990  152.8690 C   0  0  0  0  0  0  0  0  0  0  0  0
  139.0990  137.7210  151.5400 C   0  0  0  0  0  0  0  0  0  0  0  0
  140.2040  137.3550  150.7500 C   0  0  0  0  0  3  0  0  0  0  0  0
  138.2930  138.4710  153.6920 O   0  0  0  0  0  0  0  0  0  0  0  0
  138.3140  138.2400  154.6000 H   0  0  0  0  0  0  0  0  0  0  0  0
  137.9020  137.6510  150.8720 O   0  0  0  0  0  0  0  0  0  0  0  0
  137.7340  138.4560  149.7120 C   0  0  0  0  0  1  0  0  0  0  0  0
  1  2  1  0  0  0  0
  2  3  1  0  0  0  0
  2  6  1  6  0  0  0
  3  5  1  0  0  0  0
  4  1  1  0  0  0  0
  7  6  1  0  0  0  0
  8  1  1  0  0  0  0
  9  8  1  0  0  0  0
  9 10  1  0  0  0  0
 10 11  1  0  0  0  0
 11 13  1  0  0  0  0
 12 13  1  0  0  0  0
 14  3  1  0  0  0  0
 14 15  1  0  0  0  0
 15 16  1  0  0  0  0
 16 17  2  0  0  0  0
 18 17  1  0  0  0  0
 18 21  1  0  0  0  0
 19 18  2  0  0  0  0
 20 15  2  0  0  0  0
 20 19  1  0  0  0  0
 21 22  1  0  0  0  0
 23 19  1  0  0  0  0
 24 23  1  0  0  0  0
M  END
>  <MODEL>
6

>  <REMARK>
 VINA RESULT:    -5.310      2.297      3.612
 INTER + INTRA:          -9.187
 INTER:                  -8.556
 INTRA:                  -0.631
 UNBOUND:                -1.084
  Name = CHEMBL309532
  12 active torsions:
  status: ('A' for Active; 'I' for Inactive)
    1  A    between atoms: C_1  and  C_2
    2  A    between atoms: C_2  and  C_3
    3  A    between atoms: C_3  and  C_4
    4  A    between atoms: C_4  and  C_5
    5  A    between atoms: C_5  and  C_6
    6  A    between atoms: C_6  and  N_7
    7  A    between atoms: C_8  and  S_9
    8  A    between atoms: N_10  and  C_11
    9  A    between atoms: C_11  and  C_12
   10  A    between atoms: C_15  and  O_16
   11  A    between atoms: C_17  and  O_18
   12  A    between atoms: O_18  and  C_19
                            x       y       z     vdW  Elec       q    Type
                         _______ _______ _______ _____ _____    ______ ____

>  <TORSDO>
F 10

>  <SCORE>
-5.310

>  <RMSD_LB>
2.297

>  <RMSD_UB>
3.612

$$$$
CHEMBL309532
 OpenBabel10172500133D

 24 24  0  0  1  0  0  0  0  0999 V2000
  138.3020  137.6970  152.0030 N   0  0  0  0  0  0  0  0  0  0  0  0
  137.7990  137.7610  150.8290 C   0  0  1  0  0  3  0  0  0  0  0  0
  136.9080  136.8540  150.3370 N   0  0  0  0  0  0  0  0  0  0  0  0
  137.9900  136.9780  152.6000 H   0  0  0  0  0  0  0  0  0  0  0  0
  136.8440  136.7690  149.3580 H   0  0  0  0  0  0  0  0  0  0  0  0
  138.1270  139.0030  149.6280 S   0  0  0  0  0  0  0  0  0  0  0  0
  138.4610  140.1620  150.2560 H   0  0  0  0  0  0  0  0  0  0  0  0
  139.3090  138.6250  152.5130 C   0  0  0  0  0  2  0  0  0  0  0  0
  140.6870  137.9590  152.5190 C   0  0  0  0  0  2  0  0  0  0  0  0
  141.3590  138.0640  153.8910 C   0  0  0  0  0  2  0  0  0  0  0  0
  140.3880  138.5820  154.9490 C   0  0  0  0  0  2  0  0  0  0  0  0
  139.0000  137.5680  156.7810 C   0  0  0  0  0  1  0  0  0  0  0  0
  140.3930  137.6870  156.1860 C   0  0  0  0  0  2  0  0  0  0  0  0
  136.0480  136.0060  151.1320 C   0  0  0  0  0  2  0  0  0  0  0  0
  134.9700  135.3880  150.2580 C   0  0  0  0  0  0  0  0  0  0  0  0
  134.3460  134.1990  150.6500 C   0  0  0  0  0  3  0  0  0  0  0  0
  133.3800  133.5990  149.8410 C   0  0  0  0  0  3  0  0  0  0  0  0
  133.0250  134.1730  148.6170 C   0  0  0  0  0  0  0  0  0  0  0  0
  133.6350  135.3590  148.1940 C   0  0  0  0  0  0  0  0  0  0  0  0
  134.6010  135.9560  149.0250 C   0  0  0  0  0  3  0  0  0  0  0  0
  132.0770  133.5420  147.8620 O   0  0  0  0  0  0  0  0  0  0  0  0
  132.1970  133.4540  146.9360 H   0  0  0  0  0  0  0  0  0  0  0  0
  133.4170  136.0480  147.0270 O   0  0  0  0  0  0  0  0  0  0  0  0
  132.4260  137.0680  147.0270 C   0  0  0  0  0  1  0  0  0  0  0  0
  1  8  1  0  0  0  0
  1  4  1  0  0  0  0
  2  6  1  1  0  0  0
  2  1  1  0  0  0  0
  3  2  1  0  0  0  0
  3 14  1  0  0  0  0
  5  3  1  0  0  0  0
  6  7  1  0  0  0  0
  8  9  1  0  0  0  0
  9 10  1  0  0  0  0
 10 11  1  0  0  0  0
 11 13  1  0  0  0  0
 13 12  1  0  0  0  0
 15 16  1  0  0  0  0
 15 14  1  0  0  0  0
 17 16  2  0  0  0  0
 18 17  1  0  0  0  0
 19 18  2  0  0  0  0
 19 20  1  0  0  0  0
 20 15  2  0  0  0  0
 21 18  1  0  0  0  0
 22 21  1  0  0  0  0
 23 19  1  0  0  0  0
 24 23  1  0  0  0  0
M  END
>  <MODEL>
7

>  <REMARK>
 VINA RESULT:    -5.139      6.700      9.241
 INTER + INTRA:          -8.927
 INTER:                  -8.445
 INTRA:                  -0.482
 UNBOUND:                -1.084
  Name = CHEMBL309532
  12 active torsions:
  status: ('A' for Active; 'I' for Inactive)
    1  A    between atoms: C_1  and  C_2
    2  A    between atoms: C_2  and  C_3
    3  A    between atoms: C_3  and  C_4
    4  A    between atoms: C_4  and  C_5
    5  A    between atoms: C_5  and  C_6
    6  A    between atoms: C_6  and  N_7
    7  A    between atoms: C_8  and  S_9
    8  A    between atoms: N_10  and  C_11
    9  A    between atoms: C_11  and  C_12
   10  A    between atoms: C_15  and  O_16
   11  A    between atoms: C_17  and  O_18
   12  A    between atoms: O_18  and  C_19
                            x       y       z     vdW  Elec       q    Type
                         _______ _______ _______ _____ _____    ______ ____

>  <TORSDO>
F 10

>  <SCORE>
-5.139

>  <RMSD_LB>
6.700

>  <RMSD_UB>
9.241

$$$$
CHEMBL309532
 OpenBabel10172500133D

 24 24  0  0  1  0  0  0  0  0999 V2000
  144.8290  138.2280  148.8410 N   0  0  0  0  0  0  0  0  0  0  0  0
  144.5110  139.2020  148.0760 C   0  0  1  0  0  3  0  0  0  0  0  0
  145.0880  140.4350  148.1410 N   0  0  0  0  0  0  0  0  0  0  0  0
  145.5650  138.3650  149.4810 H   0  0  0  0  0  0  0  0  0  0  0  0
  144.5720  141.1940  147.7850 H   0  0  0  0  0  0  0  0  0  0  0  0
  143.3020  139.1640  146.8000 S   0  0  0  0  0  0  0  0  0  0  0  0
  143.9160  139.2660  145.5910 H   0  0  0  0  0  0  0  0  0  0  0  0
  144.1660  136.9250  148.8250 C   0  0  0  0  0  2  0  0  0  0  0  0
  144.1150  136.3390  150.2370 C   0  0  0  0  0  2  0  0  0  0  0  0
  144.3710  137.4090  151.3020 C   0  0  0  0  0  2  0  0  0  0  0  0
  143.3700  137.3030  152.4500 C   0  0  0  0  0  2  0  0  0  0  0  0
  145.3700  136.5720  153.7810 C   0  0  0  0  0  1  0  0  0  0  0  0
  144.0760  137.3660  153.8030 C   0  0  0  0  0  2  0  0  0  0  0  0
  146.3950  140.7220  148.6880 C   0  0  0  0  0  2  0  0  0  0  0  0
  146.2810  141.0540  150.1660 C   0  0  0  0  0  0  0  0  0  0  0  0
  145.7020  142.2610  150.5710 C   0  0  0  0  0  3  0  0  0  0  0  0
  145.6230  142.5980  151.9230 C   0  0  0  0  0  3  0  0  0  0  0  0
  146.1330  141.7360  152.8990 C   0  0  0  0  0  0  0  0  0  0  0  0
  146.7240  140.5230  152.5260 C   0  0  0  0  0  0  0  0  0  0  0  0
  146.7870  140.1950  151.1590 C   0  0  0  0  0  3  0  0  0  0  0  0
  146.0350  142.1170  154.2080 O   0  0  0  0  0  0  0  0  0  0  0  0
  146.7740  142.0300  154.7770 H   0  0  0  0  0  0  0  0  0  0  0  0
  147.2810  139.5720  153.3430 O   0  0  0  0  0  0  0  0  0  0  0  0
  148.2460  138.6900  152.7830 C   0  0  0  0  0  1  0  0  0  0  0  0
  1  4  1  0  0  0  0
  2  6  1  6  0  0  0
  2  3  1  0  0  0  0
  2  1  1  0  0  0  0
  3 14  1  0  0  0  0
  5  3  1  0  0  0  0
  7  6  1  0  0  0  0
  8  1  1  0  0  0  0
  8  9  1  0  0  0  0
  9 10  1  0  0  0  0
 10 11  1  0  0  0  0
 11 13  1  0  0  0  0
 12 13  1  0  0  0  0
 14 15  1  0  0  0  0
 15 16  2  0  0  0  0
 15 20  1  0  0  0  0
 16 17  1  0  0  0  0
 17 18  2  0  0  0  0
 18 21  1  0  0  0  0
 19 18  1  0  0  0  0
 19 23  1  0  0  0  0
 20 19  2  0  0  0  0
 21 22  1  0  0  0  0
 24 23  1  0  0  0  0
M  END
>  <MODEL>
8

>  <REMARK>
 VINA RESULT:    -5.083      4.396      7.126
 INTER + INTRA:          -8.841
 INTER:                  -7.890
 INTRA:                  -0.950
 UNBOUND:                -1.084
  Name = CHEMBL309532
  12 active torsions:
  status: ('A' for Active; 'I' for Inactive)
    1  A    between atoms: C_1  and  C_2
    2  A    between atoms: C_2  and  C_3
    3  A    between atoms: C_3  and  C_4
    4  A    between atoms: C_4  and  C_5
    5  A    between atoms: C_5  and  C_6
    6  A    between atoms: C_6  and  N_7
    7  A    between atoms: C_8  and  S_9
    8  A    between atoms: N_10  and  C_11
    9  A    between atoms: C_11  and  C_12
   10  A    between atoms: C_15  and  O_16
   11  A    between atoms: C_17  and  O_18
   12  A    between atoms: O_18  and  C_19
                            x       y       z     vdW  Elec       q    Type
                         _______ _______ _______ _____ _____    ______ ____

>  <TORSDO>
F 10

>  <SCORE>
-5.083

>  <RMSD_LB>
4.396

>  <RMSD_UB>
7.126

$$$$
CHEMBL309532
 OpenBabel10172500133D

 24 24  0  0  1  0  0  0  0  0999 V2000
  135.6630  136.1510  148.0370 N   0  0  0  0  0  0  0  0  0  0  0  0
  136.4920  135.7000  148.9000 C   0  0  1  0  0  3  0  0  0  0  0  0
  137.5510  134.9010  148.5880 N   0  0  0  0  0  0  0  0  0  0  0  0
  135.8290  135.9470  147.0880 H   0  0  0  0  0  0  0  0  0  0  0  0
  137.9130  134.3310  149.3050 H   0  0  0  0  0  0  0  0  0  0  0  0
  136.4560  136.0110  150.6310 S   0  0  0  0  0  0  0  0  0  0  0  0
  137.3750  136.9650  150.9390 H   0  0  0  0  0  0  0  0  0  0  0  0
  134.4860  136.9500  148.3720 C   0  0  0  0  0  2  0  0  0  0  0  0
  133.2390  136.0640  148.4080 C   0  0  0  0  0  2  0  0  0  0  0  0
  133.4130  134.8070  147.5520 C   0  0  0  0  0  2  0  0  0  0  0  0
  132.8830  133.5670  148.2680 C   0  0  0  0  0  2  0  0  0  0  0  0
  133.8450  133.1230  150.5450 C   0  0  0  0  0  1  0  0  0  0  0  0
  133.9910  132.8700  149.0540 C   0  0  0  0  0  2  0  0  0  0  0  0
  138.1870  134.8200  147.2930 C   0  0  0  0  0  2  0  0  0  0  0  0
  137.4450  133.8360  146.4060 C   0  0  0  0  0  0  0  0  0  0  0  0
  136.8910  132.6760  146.9560 C   0  0  0  0  0  3  0  0  0  0  0  0
  136.2380  131.7430  146.1500 C   0  0  0  0  0  3  0  0  0  0  0  0
  136.1350  131.9480  144.7710 C   0  0  0  0  0  0  0  0  0  0  0  0
  136.6840  133.0960  144.1880 C   0  0  0  0  0  0  0  0  0  0  0  0
  137.3310  134.0310  145.0170 C   0  0  0  0  0  3  0  0  0  0  0  0
  135.4900  131.0000  144.0260 O   0  0  0  0  0  0  0  0  0  0  0  0
  135.5530  130.0960  144.2640 H   0  0  0  0  0  0  0  0  0  0  0  0
  136.6840  133.4480  142.8620 O   0  0  0  0  0  0  0  0  0  0  0  0
  137.6500  132.8460  142.0090 C   0  0  0  0  0  1  0  0  0  0  0  0
  1  8  1  0  0  0  0
  1  2  1  0  0  0  0
  2  6  1  6  0  0  0
  3  2  1  0  0  0  0
  3  5  1  0  0  0  0
  4  1  1  0  0  0  0
  6  7  1  0  0  0  0
  8  9  1  0  0  0  0
 10 11  1  0  0  0  0
 10  9  1  0  0  0  0
 11 13  1  0  0  0  0
 13 12  1  0  0  0  0
 14  3  1  0  0  0  0
 15 16  1  0  0  0  0
 15 14  1  0  0  0  0
 17 16  2  0  0  0  0
 18 17  1  0  0  0  0
 19 18  2  0  0  0  0
 19 20  1  0  0  0  0
 20 15  2  0  0  0  0
 21 22  1  0  0  0  0
 21 18  1  0  0  0  0
 23 19  1  0  0  0  0
 24 23  1  0  0  0  0
M  END
>  <MODEL>
9

>  <REMARK>
 VINA RESULT:    -5.057     10.415     12.975
 INTER + INTRA:          -8.801
 INTER:                  -7.717
 INTRA:                  -1.084
 UNBOUND:                -1.084
  Name = CHEMBL309532
  12 active torsions:
  status: ('A' for Active; 'I' for Inactive)
    1  A    between atoms: C_1  and  C_2
    2  A    between atoms: C_2  and  C_3
    3  A    between atoms: C_3  and  C_4
    4  A    between atoms: C_4  and  C_5
    5  A    between atoms: C_5  and  C_6
    6  A    between atoms: C_6  and  N_7
    7  A    between atoms: C_8  and  S_9
    8  A    between atoms: N_10  and  C_11
    9  A    between atoms: C_11  and  C_12
   10  A    between atoms: C_15  and  O_16
   11  A    between atoms: C_17  and  O_18
   12  A    between atoms: O_18  and  C_19
                            x       y       z     vdW  Elec       q    Type
                         _______ _______ _______ _____ _____    ______ ____

>  <TORSDO>
F 10

>  <SCORE>
-5.057

>  <RMSD_LB>
10.415

>  <RMSD_UB>
12.975

$$$$
