CHEMBL3187928
 OpenBabel10172500533D

 24 24  0  0  0  0  0  0  0  0999 V2000
  138.5670  137.6810  154.3660 N   0  0  0  0  0  0  0  0  0  0  0  0
  139.3190  138.7640  153.9890 C   0  0  0  0  0  0  0  0  0  0  0  0
  139.8520  139.5370  154.7960 O   0  0  0  0  0  0  0  0  0  0  0  0
  138.1760  137.0990  153.6750 H   0  0  0  0  0  0  0  0  0  0  0  0
  138.3380  137.3800  155.7610 C   0  0  0  0  0  2  0  0  0  0  0  0
  135.6720  135.2520  157.5450 C   0  0  0  0  0  0  0  0  0  0  0  0
  136.7940  136.0620  157.3190 C   0  0  0  0  0  3  0  0  0  0  0  0
  137.1520  136.4790  156.0240 C   0  0  0  0  0  0  0  0  0  0  0  0
  136.3400  136.0820  154.9520 C   0  0  0  0  0  3  0  0  0  0  0  0
  135.2220  135.2700  155.1600 C   0  0  0  0  0  3  0  0  0  0  0  0
  134.8940  134.8580  156.4490 C   0  0  0  0  0  0  0  0  0  0  0  0
  136.1820  135.0000  159.8570 C   0  0  0  0  0  1  0  0  0  0  0  0
  135.2740  134.8030  158.7800 O   0  0  0  0  0  0  0  0  0  0  0  0
  133.8010  134.0570  156.6550 O   0  0  0  0  0  0  0  0  0  0  0  0
  133.1600  134.2960  157.2950 H   0  0  0  0  0  0  0  0  0  0  0  0
  139.4360  138.9190  152.4910 C   0  0  0  0  0  2  0  0  0  0  0  0
  140.1270  137.7160  151.8610 C   0  0  0  0  0  2  0  0  0  0  0  0
  139.3260  137.1470  150.6870 C   0  0  0  0  0  2  0  0  0  0  0  0
  138.0430  137.9510  150.4840 C   0  0  0  0  0  2  0  0  0  0  0  0
  136.8330  137.0670  150.5060 C   0  0  0  0  0  3  0  0  0  0  0  0
  136.6920  136.0430  151.3630 C   0  0  0  0  0  3  0  0  0  0  0  0
  135.4920  135.1290  151.3730 C   0  0  0  0  0  3  0  0  0  0  0  0
  134.2040  135.9120  151.6280 C   0  0  0  0  0  1  0  0  0  0  0  0
  135.3860  134.3620  150.0550 C   0  0  0  0  0  1  0  0  0  0  0  0
  1  5  1  0  0  0  0
  2  1  1  0  0  0  0
  2  3  2  0  0  0  0
  4  1  1  0  0  0  0
  5  8  1  0  0  0  0
  6 13  1  0  0  0  0
  7  6  1  0  0  0  0
  8  7  2  0  0  0  0
  9 10  2  0  0  0  0
  9  8  1  0  0  0  0
 10 11  1  0  0  0  0
 11 14  1  0  0  0  0
 11  6  2  0  0  0  0
 13 12  1  0  0  0  0
 14 15  1  0  0  0  0
 16  2  1  0  0  0  0
 17 16  1  0  0  0  0
 18 17  1  0  0  0  0
 19 20  1  0  0  0  0
 19 18  1  0  0  0  0
 20 21  2  0  0  0  0
 21 22  1  0  0  0  0
 22 23  1  0  0  0  0
 24 22  1  0  0  0  0
M  END
>  <MODEL>
1

>  <REMARK>
 VINA RESULT:    -6.496      0.000      0.000
 INTER + INTRA:         -10.956
 INTER:                  -9.500
 INTRA:                  -1.456
 UNBOUND:                -0.853
  Name = CHEMBL3187928
  13 active torsions:
  status: ('A' for Active; 'I' for Inactive)
    1  A    between atoms: C_1  and  O_2
    2  A    between atoms: O_2  and  C_3
    3  A    between atoms: C_5  and  C_6
    4  A    between atoms: C_6  and  N_7
    5  A    between atoms: C_8  and  C_10
    6  A    between atoms: C_10  and  C_11
    7  A    between atoms: C_11  and  C_12
    8  A    between atoms: C_12  and  C_13
    9  A    between atoms: C_13  and  C_14
   10  A    between atoms: C_15  and  C_16
   11  A    between atoms: C_16  and  C_17
   12  A    between atoms: C_16  and  C_18
   13  A    between atoms: C_21  and  O_22
                            x       y       z     vdW  Elec       q    Type
                         _______ _______ _______ _____ _____    ______ ____

>  <TORSDO>
F 10

>  <SCORE>
-6.496

>  <RMSD_LB>
0.000

>  <RMSD_UB>
0.000

$$$$
CHEMBL3187928
 OpenBabel10172500533D

 24 24  0  0  0  0  0  0  0  0999 V2000
  134.8260  135.5810  155.2270 N   0  0  0  0  0  0  0  0  0  0  0  0
  134.8520  135.0380  156.4860 C   0  0  0  0  0  0  0  0  0  0  0  0
  134.0180  134.2170  156.8910 O   0  0  0  0  0  0  0  0  0  0  0  0
  135.5240  136.2230  154.9620 H   0  0  0  0  0  0  0  0  0  0  0  0
  133.7910  135.2280  154.2820 C   0  0  0  0  0  2  0  0  0  0  0  0
  133.9650  135.2320  150.4370 C   0  0  0  0  0  0  0  0  0  0  0  0
  133.4870  135.3840  151.7460 C   0  0  0  0  0  3  0  0  0  0  0  0
  134.2740  135.0410  152.8610 C   0  0  0  0  0  0  0  0  0  0  0  0
  135.5710  134.5600  152.6340 C   0  0  0  0  0  3  0  0  0  0  0  0
  136.0600  134.3980  151.3350 C   0  0  0  0  0  3  0  0  0  0  0  0
  135.2590  134.7310  150.2460 C   0  0  0  0  0  0  0  0  0  0  0  0
  133.0700  136.9170  149.0120 C   0  0  0  0  0  1  0  0  0  0  0  0
  133.2460  135.5370  149.3080 O   0  0  0  0  0  0  0  0  0  0  0  0
  135.7330  134.5670  148.9710 O   0  0  0  0  0  0  0  0  0  0  0  0
  135.5540  135.2130  148.3180 H   0  0  0  0  0  0  0  0  0  0  0  0
  136.0030  135.5350  157.3290 C   0  0  0  0  0  2  0  0  0  0  0  0
  137.2950  135.5990  156.5240 C   0  0  0  0  0  2  0  0  0  0  0  0
  138.0370  136.9200  156.7380 C   0  0  0  0  0  2  0  0  0  0  0  0
  137.5900  137.9510  155.7040 C   0  0  0  0  0  2  0  0  0  0  0  0
  138.1370  137.6380  154.3450 C   0  0  0  0  0  3  0  0  0  0  0  0
  138.7640  138.5480  153.5820 C   0  0  0  0  0  3  0  0  0  0  0  0
  139.2900  138.2520  152.2000 C   0  0  0  0  0  3  0  0  0  0  0  0
  140.6620  137.5800  152.2650 C   0  0  0  0  0  1  0  0  0  0  0  0
  138.3110  137.3700  151.4260 C   0  0  0  0  0  1  0  0  0  0  0  0
  1  2  1  0  0  0  0
  2  3  2  0  0  0  0
  2 16  1  0  0  0  0
  4  1  1  0  0  0  0
  5  1  1  0  0  0  0
  6  7  1  0  0  0  0
  7  8  2  0  0  0  0
  8  5  1  0  0  0  0
  9  8  1  0  0  0  0
 10  9  2  0  0  0  0
 11  6  2  0  0  0  0
 11 10  1  0  0  0  0
 12 13  1  0  0  0  0
 13  6  1  0  0  0  0
 14 11  1  0  0  0  0
 15 14  1  0  0  0  0
 17 18  1  0  0  0  0
 17 16  1  0  0  0  0
 19 18  1  0  0  0  0
 20 19  1  0  0  0  0
 21 20  2  0  0  0  0
 22 23  1  0  0  0  0
 22 21  1  0  0  0  0
 24 22  1  0  0  0  0
M  END
>  <MODEL>
2

>  <REMARK>
 VINA RESULT:    -6.469      2.756      6.358
 INTER + INTRA:         -10.915
 INTER:                  -9.669
 INTRA:                  -1.246
 UNBOUND:                -0.853
  Name = CHEMBL3187928
  13 active torsions:
  status: ('A' for Active; 'I' for Inactive)
    1  A    between atoms: C_1  and  O_2
    2  A    between atoms: O_2  and  C_3
    3  A    between atoms: C_5  and  C_6
    4  A    between atoms: C_6  and  N_7
    5  A    between atoms: C_8  and  C_10
    6  A    between atoms: C_10  and  C_11
    7  A    between atoms: C_11  and  C_12
    8  A    between atoms: C_12  and  C_13
    9  A    between atoms: C_13  and  C_14
   10  A    between atoms: C_15  and  C_16
   11  A    between atoms: C_16  and  C_17
   12  A    between atoms: C_16  and  C_18
   13  A    between atoms: C_21  and  O_22
                            x       y       z     vdW  Elec       q    Type
                         _______ _______ _______ _____ _____    ______ ____

>  <TORSDO>
F 10

>  <SCORE>
-6.469

>  <RMSD_LB>
2.756

>  <RMSD_UB>
6.358

$$$$
CHEMBL3187928
 OpenBabel10172500533D

 24 24  0  0  0  0  0  0  0  0999 V2000
  143.3110  139.3680  153.3750 N   0  0  0  0  0  0  0  0  0  0  0  0
  142.0990  138.7270  153.3950 C   0  0  0  0  0  0  0  0  0  0  0  0
  141.6890  138.0770  154.3660 O   0  0  0  0  0  0  0  0  0  0  0  0
  143.5760  139.8760  152.5740 H   0  0  0  0  0  0  0  0  0  0  0  0
  144.2060  139.3090  154.5080 C   0  0  0  0  0  2  0  0  0  0  0  0
  148.0050  139.8590  154.2110 C   0  0  0  0  0  0  0  0  0  0  0  0
  146.6540  140.0580  154.5270 C   0  0  0  0  0  3  0  0  0  0  0  0
  145.6650  139.1310  154.1490 C   0  0  0  0  0  0  0  0  0  0  0  0
  146.0670  137.9780  153.4600 C   0  0  0  0  0  3  0  0  0  0  0  0
  147.4090  137.7680  153.1330 C   0  0  0  0  0  3  0  0  0  0  0  0
  148.3690  138.7050  153.5060 C   0  0  0  0  0  0  0  0  0  0  0  0
  149.1330  141.9050  153.7530 C   0  0  0  0  0  1  0  0  0  0  0  0
  149.0160  140.7270  154.5410 O   0  0  0  0  0  0  0  0  0  0  0  0
  149.6850  138.5040  153.1810 O   0  0  0  0  0  0  0  0  0  0  0  0
  149.9120  137.9140  152.4900 H   0  0  0  0  0  0  0  0  0  0  0  0
  141.3100  138.8970  152.1180 C   0  0  0  0  0  2  0  0  0  0  0  0
  142.0180  138.2440  150.9370 C   0  0  0  0  0  2  0  0  0  0  0  0
  142.4580  139.2740  149.8940 C   0  0  0  0  0  2  0  0  0  0  0  0
  143.9650  139.1820  149.6630 C   0  0  0  0  0  2  0  0  0  0  0  0
  144.6600  140.4480  150.0620 C   0  0  0  0  0  3  0  0  0  0  0  0
  145.8860  140.4670  150.6090 C   0  0  0  0  0  3  0  0  0  0  0  0
  146.5820  141.7320  151.0430 C   0  0  0  0  0  3  0  0  0  0  0  0
  146.8350  142.6590  149.8530 C   0  0  0  0  0  1  0  0  0  0  0  0
  145.7640  142.4610  152.1100 C   0  0  0  0  0  1  0  0  0  0  0  0
  1  2  1  0  0  0  0
  1  5  1  0  0  0  0
  2  3  2  0  0  0  0
  4  1  1  0  0  0  0
  6  7  1  0  0  0  0
  6 13  1  0  0  0  0
  8  5  1  0  0  0  0
  8  7  2  0  0  0  0
  9  8  1  0  0  0  0
 10  9  2  0  0  0  0
 10 11  1  0  0  0  0
 11  6  2  0  0  0  0
 12 13  1  0  0  0  0
 14 11  1  0  0  0  0
 15 14  1  0  0  0  0
 16  2  1  0  0  0  0
 17 16  1  0  0  0  0
 18 17  1  0  0  0  0
 19 18  1  0  0  0  0
 19 20  1  0  0  0  0
 20 21  2  0  0  0  0
 21 22  1  0  0  0  0
 22 24  1  0  0  0  0
 23 22  1  0  0  0  0
M  END
>  <MODEL>
3

>  <REMARK>
 VINA RESULT:    -6.376      6.676     10.664
 INTER + INTRA:         -10.771
 INTER:                  -8.934
 INTRA:                  -1.836
 UNBOUND:                -0.853
  Name = CHEMBL3187928
  13 active torsions:
  status: ('A' for Active; 'I' for Inactive)
    1  A    between atoms: C_1  and  O_2
    2  A    between atoms: O_2  and  C_3
    3  A    between atoms: C_5  and  C_6
    4  A    between atoms: C_6  and  N_7
    5  A    between atoms: C_8  and  C_10
    6  A    between atoms: C_10  and  C_11
    7  A    between atoms: C_11  and  C_12
    8  A    between atoms: C_12  and  C_13
    9  A    between atoms: C_13  and  C_14
   10  A    between atoms: C_15  and  C_16
   11  A    between atoms: C_16  and  C_17
   12  A    between atoms: C_16  and  C_18
   13  A    between atoms: C_21  and  O_22
                            x       y       z     vdW  Elec       q    Type
                         _______ _______ _______ _____ _____    ______ ____

>  <TORSDO>
F 10

>  <SCORE>
-6.376

>  <RMSD_LB>
6.676

>  <RMSD_UB>
10.664

$$$$
CHEMBL3187928
 OpenBabel10172500533D

 24 24  0  0  0  0  0  0  0  0999 V2000
  139.0180  137.7680  153.9860 N   0  0  0  0  0  0  0  0  0  0  0  0
  140.2380  138.3380  154.2480 C   0  0  0  0  0  0  0  0  0  0  0  0
  140.5090  138.9090  155.3130 O   0  0  0  0  0  0  0  0  0  0  0  0
  138.8690  137.3210  153.1220 H   0  0  0  0  0  0  0  0  0  0  0  0
  137.9490  137.8130  154.9570 C   0  0  0  0  0  2  0  0  0  0  0  0
  135.4450  135.4250  153.2710 C   0  0  0  0  0  0  0  0  0  0  0  0
  136.4380  136.3970  153.4530 C   0  0  0  0  0  3  0  0  0  0  0  0
  136.8560  136.7910  154.7380 C   0  0  0  0  0  0  0  0  0  0  0  0
  136.2670  136.1660  155.8460 C   0  0  0  0  0  3  0  0  0  0  0  0
  135.2710  135.2000  155.6810 C   0  0  0  0  0  3  0  0  0  0  0  0
  134.8640  134.8350  154.4010 C   0  0  0  0  0  0  0  0  0  0  0  0
  135.9370  134.4050  151.1770 C   0  0  0  0  0  1  0  0  0  0  0  0
  134.9860  135.0040  152.0480 O   0  0  0  0  0  0  0  0  0  0  0  0
  133.8840  133.8920  154.2360 O   0  0  0  0  0  0  0  0  0  0  0  0
  133.1410  134.0780  153.6970 H   0  0  0  0  0  0  0  0  0  0  0  0
  141.2210  138.1970  153.1100 C   0  0  0  0  0  2  0  0  0  0  0  0
  142.6330  137.9430  153.6240 C   0  0  0  0  0  2  0  0  0  0  0  0
  143.5430  139.1570  153.4190 C   0  0  0  0  0  2  0  0  0  0  0  0
  143.5460  139.5720  151.9490 C   0  0  0  0  0  2  0  0  0  0  0  0
  144.5060  140.6960  151.6990 C   0  0  0  0  0  3  0  0  0  0  0  0
  145.5010  141.0080  152.5450 C   0  0  0  0  0  3  0  0  0  0  0  0
  146.4530  142.1550  152.3180 C   0  0  0  0  0  3  0  0  0  0  0  0
  147.7250  141.9910  153.1510 C   0  0  0  0  0  1  0  0  0  0  0  0
  146.8100  142.2770  150.8360 C   0  0  0  0  0  1  0  0  0  0  0  0
  1  2  1  0  0  0  0
  1  5  1  0  0  0  0
  2  3  2  0  0  0  0
  4  1  1  0  0  0  0
  6  7  2  0  0  0  0
  6 11  1  0  0  0  0
  7  8  1  0  0  0  0
  8  5  1  0  0  0  0
  8  9  2  0  0  0  0
 10  9  1  0  0  0  0
 11 10  2  0  0  0  0
 12 13  1  0  0  0  0
 13  6  1  0  0  0  0
 14 11  1  0  0  0  0
 15 14  1  0  0  0  0
 16 17  1  0  0  0  0
 16  2  1  0  0  0  0
 18 17  1  0  0  0  0
 19 18  1  0  0  0  0
 20 19  1  0  0  0  0
 20 21  2  0  0  0  0
 22 21  1  0  0  0  0
 22 23  1  0  0  0  0
 24 22  1  0  0  0  0
M  END
>  <MODEL>
4

>  <REMARK>
 VINA RESULT:    -6.266      4.036      6.784
 INTER + INTRA:         -10.599
 INTER:                  -9.984
 INTRA:                  -0.615
 UNBOUND:                -0.853
  Name = CHEMBL3187928
  13 active torsions:
  status: ('A' for Active; 'I' for Inactive)
    1  A    between atoms: C_1  and  O_2
    2  A    between atoms: O_2  and  C_3
    3  A    between atoms: C_5  and  C_6
    4  A    between atoms: C_6  and  N_7
    5  A    between atoms: C_8  and  C_10
    6  A    between atoms: C_10  and  C_11
    7  A    between atoms: C_11  and  C_12
    8  A    between atoms: C_12  and  C_13
    9  A    between atoms: C_13  and  C_14
   10  A    between atoms: C_15  and  C_16
   11  A    between atoms: C_16  and  C_17
   12  A    between atoms: C_16  and  C_18
   13  A    between atoms: C_21  and  O_22
                            x       y       z     vdW  Elec       q    Type
                         _______ _______ _______ _____ _____    ______ ____

>  <TORSDO>
F 10

>  <SCORE>
-6.266

>  <RMSD_LB>
4.036

>  <RMSD_UB>
6.784

$$$$
CHEMBL3187928
 OpenBabel10172500533D

 24 24  0  0  0  0  0  0  0  0999 V2000
  134.9280  133.2730  147.3460 N   0  0  0  0  0  0  0  0  0  0  0  0
  135.7260  132.2090  147.0140 C   0  0  0  0  0  0  0  0  0  0  0  0
  135.5280  131.0560  147.4210 O   0  0  0  0  0  0  0  0  0  0  0  0
  135.1350  134.1650  146.9820 H   0  0  0  0  0  0  0  0  0  0  0  0
  133.7890  133.1090  148.2200 C   0  0  0  0  0  2  0  0  0  0  0  0
  135.1110  135.0710  151.2570 C   0  0  0  0  0  0  0  0  0  0  0  0
  135.0730  134.2950  150.0900 C   0  0  0  0  0  3  0  0  0  0  0  0
  133.8540  133.9180  149.4970 C   0  0  0  0  0  0  0  0  0  0  0  0
  132.6640  134.3610  150.0910 C   0  0  0  0  0  3  0  0  0  0  0  0
  132.6850  135.1310  151.2570 C   0  0  0  0  0  3  0  0  0  0  0  0
  133.9030  135.4800  151.8340 C   0  0  0  0  0  0  0  0  0  0  0  0
  136.9070  136.6290  151.3900 C   0  0  0  0  0  1  0  0  0  0  0  0
  136.2640  135.4630  151.8900 O   0  0  0  0  0  0  0  0  0  0  0  0
  133.9270  136.2290  152.9810 O   0  0  0  0  0  0  0  0  0  0  0  0
  133.2160  136.8070  153.1780 H   0  0  0  0  0  0  0  0  0  0  0  0
  136.8700  132.5800  146.0990 C   0  0  0  0  0  2  0  0  0  0  0  0
  136.3780  133.3500  144.8800 C   0  0  0  0  0  2  0  0  0  0  0  0
  135.8950  132.4140  143.7690 C   0  0  0  0  0  2  0  0  0  0  0  0
  137.0740  131.6470  143.1750 C   0  0  0  0  0  2  0  0  0  0  0  0
  137.8200  132.4760  142.1740 C   0  0  0  0  0  3  0  0  0  0  0  0
  137.2210  133.0780  141.1330 C   0  0  0  0  0  3  0  0  0  0  0  0
  137.9670  133.8880  140.1030 C   0  0  0  0  0  3  0  0  0  0  0  0
  139.0050  133.0340  139.3740 C   0  0  0  0  0  1  0  0  0  0  0  0
  136.9960  134.5050  139.0960 C   0  0  0  0  0  1  0  0  0  0  0  0
  1  5  1  0  0  0  0
  2  1  1  0  0  0  0
  2  3  2  0  0  0  0
  4  1  1  0  0  0  0
  5  8  1  0  0  0  0
  6 11  1  0  0  0  0
  6 13  1  0  0  0  0
  7  6  2  0  0  0  0
  8  7  1  0  0  0  0
  8  9  2  0  0  0  0
  9 10  1  0  0  0  0
 10 11  2  0  0  0  0
 11 14  1  0  0  0  0
 12 13  1  0  0  0  0
 14 15  1  0  0  0  0
 16  2  1  0  0  0  0
 17 16  1  0  0  0  0
 18 17  1  0  0  0  0
 19 18  1  0  0  0  0
 20 19  1  0  0  0  0
 21 20  2  0  0  0  0
 22 21  1  0  0  0  0
 23 22  1  0  0  0  0
 24 22  1  0  0  0  0
M  END
>  <MODEL>
5

>  <REMARK>
 VINA RESULT:    -6.259      6.496      9.050
 INTER + INTRA:         -10.589
 INTER:                  -9.844
 INTRA:                  -0.744
 UNBOUND:                -0.853
  Name = CHEMBL3187928
  13 active torsions:
  status: ('A' for Active; 'I' for Inactive)
    1  A    between atoms: C_1  and  O_2
    2  A    between atoms: O_2  and  C_3
    3  A    between atoms: C_5  and  C_6
    4  A    between atoms: C_6  and  N_7
    5  A    between atoms: C_8  and  C_10
    6  A    between atoms: C_10  and  C_11
    7  A    between atoms: C_11  and  C_12
    8  A    between atoms: C_12  and  C_13
    9  A    between atoms: C_13  and  C_14
   10  A    between atoms: C_15  and  C_16
   11  A    between atoms: C_16  and  C_17
   12  A    between atoms: C_16  and  C_18
   13  A    between atoms: C_21  and  O_22
                            x       y       z     vdW  Elec       q    Type
                         _______ _______ _______ _____ _____    ______ ____

>  <TORSDO>
F 10

>  <SCORE>
-6.259

>  <RMSD_LB>
6.496

>  <RMSD_UB>
9.050

$$$$
CHEMBL3187928
 OpenBabel10172500533D

 24 24  0  0  0  0  0  0  0  0999 V2000
  137.8480  137.9930  154.7410 N   0  0  0  0  0  0  0  0  0  0  0  0
  137.8530  137.6260  156.0620 C   0  0  0  0  0  0  0  0  0  0  0  0
  138.6660  138.0630  156.8870 O   0  0  0  0  0  0  0  0  0  0  0  0
  137.1690  137.6150  154.1360 H   0  0  0  0  0  0  0  0  0  0  0  0
  138.8220  138.9250  154.2200 C   0  0  0  0  0  2  0  0  0  0  0  0
  140.4410  137.3060  151.1250 C   0  0  0  0  0  0  0  0  0  0  0  0
  139.4830  137.8400  151.9980 C   0  0  0  0  0  3  0  0  0  0  0  0
  139.8340  138.3150  153.2750 C   0  0  0  0  0  0  0  0  0  0  0  0
  141.1830  138.2650  153.6520 C   0  0  0  0  0  3  0  0  0  0  0  0
  142.1500  137.7310  152.7960 C   0  0  0  0  0  3  0  0  0  0  0  0
  141.7770  137.2540  151.5420 C   0  0  0  0  0  0  0  0  0  0  0  0
  139.5680  137.7200  148.9490 C   0  0  0  0  0  1  0  0  0  0  0  0
  140.1640  136.8180  149.8730 O   0  0  0  0  0  0  0  0  0  0  0  0
  142.7220  136.7250  150.7020 O   0  0  0  0  0  0  0  0  0  0  0  0
  142.9220  137.1530  149.8940 H   0  0  0  0  0  0  0  0  0  0  0  0
  136.7660  136.6380  156.4130 C   0  0  0  0  0  2  0  0  0  0  0  0
  136.0370  136.1480  155.1680 C   0  0  0  0  0  2  0  0  0  0  0  0
  134.8660  135.2260  155.5180 C   0  0  0  0  0  2  0  0  0  0  0  0
  134.6940  134.1590  154.4390 C   0  0  0  0  0  2  0  0  0  0  0  0
  135.0260  134.6940  153.0790 C   0  0  0  0  0  3  0  0  0  0  0  0
  135.8880  134.0880  152.2470 C   0  0  0  0  0  3  0  0  0  0  0  0
  136.2520  134.6340  150.8890 C   0  0  0  0  0  3  0  0  0  0  0  0
  135.1870  134.2840  149.8490 C   0  0  0  0  0  1  0  0  0  0  0  0
  136.4480  136.1490  150.9500 C   0  0  0  0  0  1  0  0  0  0  0  0
  1  2  1  0  0  0  0
  2 16  1  0  0  0  0
  2  3  2  0  0  0  0
  4  1  1  0  0  0  0
  5  1  1  0  0  0  0
  6 11  2  0  0  0  0
  6  7  1  0  0  0  0
  7  8  2  0  0  0  0
  8  9  1  0  0  0  0
  8  5  1  0  0  0  0
 10  9  2  0  0  0  0
 11 10  1  0  0  0  0
 12 13  1  0  0  0  0
 13  6  1  0  0  0  0
 14 11  1  0  0  0  0
 15 14  1  0  0  0  0
 17 18  1  0  0  0  0
 17 16  1  0  0  0  0
 19 18  1  0  0  0  0
 20 19  1  0  0  0  0
 21 20  2  0  0  0  0
 22 24  1  0  0  0  0
 22 21  1  0  0  0  0
 23 22  1  0  0  0  0
M  END
>  <MODEL>
6

>  <REMARK>
 VINA RESULT:    -6.204      2.250      6.253
 INTER + INTRA:         -10.503
 INTER:                  -9.366
 INTRA:                  -1.137
 UNBOUND:                -0.853
  Name = CHEMBL3187928
  13 active torsions:
  status: ('A' for Active; 'I' for Inactive)
    1  A    between atoms: C_1  and  O_2
    2  A    between atoms: O_2  and  C_3
    3  A    between atoms: C_5  and  C_6
    4  A    between atoms: C_6  and  N_7
    5  A    between atoms: C_8  and  C_10
    6  A    between atoms: C_10  and  C_11
    7  A    between atoms: C_11  and  C_12
    8  A    between atoms: C_12  and  C_13
    9  A    between atoms: C_13  and  C_14
   10  A    between atoms: C_15  and  C_16
   11  A    between atoms: C_16  and  C_17
   12  A    between atoms: C_16  and  C_18
   13  A    between atoms: C_21  and  O_22
                            x       y       z     vdW  Elec       q    Type
                         _______ _______ _______ _____ _____    ______ ____

>  <TORSDO>
F 10

>  <SCORE>
-6.204

>  <RMSD_LB>
2.250

>  <RMSD_UB>
6.253

$$$$
CHEMBL3187928
 OpenBabel10172500533D

 24 24  0  0  0  0  0  0  0  0999 V2000
  135.5230  134.9700  154.5220 N   0  0  0  0  0  0  0  0  0  0  0  0
  134.9620  134.1150  153.6090 C   0  0  0  0  0  0  0  0  0  0  0  0
  134.0840  133.2900  153.8980 O   0  0  0  0  0  0  0  0  0  0  0  0
  136.2110  135.6100  154.2270 H   0  0  0  0  0  0  0  0  0  0  0  0
  135.1200  134.9500  155.9100 C   0  0  0  0  0  2  0  0  0  0  0  0
  137.6710  137.5400  157.1800 C   0  0  0  0  0  0  0  0  0  0  0  0
  136.9400  136.7020  156.3250 C   0  0  0  0  0  3  0  0  0  0  0  0
  135.9440  135.8380  156.8170 C   0  0  0  0  0  0  0  0  0  0  0  0
  135.6790  135.8480  158.1940 C   0  0  0  0  0  3  0  0  0  0  0  0
  136.4030  136.6730  159.0590 C   0  0  0  0  0  3  0  0  0  0  0  0
  137.3930  137.5110  158.5520 C   0  0  0  0  0  0  0  0  0  0  0  0
  139.0400  138.3260  155.3980 C   0  0  0  0  0  1  0  0  0  0  0  0
  138.6600  138.3970  156.7660 O   0  0  0  0  0  0  0  0  0  0  0  0
  138.1080  138.3160  159.3990 O   0  0  0  0  0  0  0  0  0  0  0  0
  138.7470  138.9070  159.0540 H   0  0  0  0  0  0  0  0  0  0  0  0
  135.5170  134.2800  152.2140 C   0  0  0  0  0  2  0  0  0  0  0  0
  134.9380  135.5110  151.5280 C   0  0  0  0  0  2  0  0  0  0  0  0
  136.0120  136.3070  150.7830 C   0  0  0  0  0  2  0  0  0  0  0  0
  137.0400  136.8590  151.7680 C   0  0  0  0  0  2  0  0  0  0  0  0
  138.3520  137.1340  151.0970 C   0  0  0  0  0  3  0  0  0  0  0  0
  139.4400  137.5510  151.7650 C   0  0  0  0  0  3  0  0  0  0  0  0
  140.7560  137.8600  151.0950 C   0  0  0  0  0  3  0  0  0  0  0  0
  140.8700  139.3480  150.7630 C   0  0  0  0  0  1  0  0  0  0  0  0
  141.9260  137.4290  151.9790 C   0  0  0  0  0  1  0  0  0  0  0  0
  1  5  1  0  0  0  0
  2  3  2  0  0  0  0
  2  1  1  0  0  0  0
  4  1  1  0  0  0  0
  5  8  1  0  0  0  0
  6 11  1  0  0  0  0
  7  8  1  0  0  0  0
  7  6  2  0  0  0  0
  8  9  2  0  0  0  0
  9 10  1  0  0  0  0
 11 10  2  0  0  0  0
 11 14  1  0  0  0  0
 12 13  1  0  0  0  0
 13  6  1  0  0  0  0
 15 14  1  0  0  0  0
 16  2  1  0  0  0  0
 17 16  1  0  0  0  0
 18 17  1  0  0  0  0
 18 19  1  0  0  0  0
 20 21  2  0  0  0  0
 20 19  1  0  0  0  0
 22 21  1  0  0  0  0
 22 24  1  0  0  0  0
 23 22  1  0  0  0  0
M  END
>  <MODEL>
7

>  <REMARK>
 VINA RESULT:    -6.114      1.953      5.064
 INTER + INTRA:         -10.362
 INTER:                  -9.509
 INTRA:                  -0.853
 UNBOUND:                -0.853
  Name = CHEMBL3187928
  13 active torsions:
  status: ('A' for Active; 'I' for Inactive)
    1  A    between atoms: C_1  and  O_2
    2  A    between atoms: O_2  and  C_3
    3  A    between atoms: C_5  and  C_6
    4  A    between atoms: C_6  and  N_7
    5  A    between atoms: C_8  and  C_10
    6  A    between atoms: C_10  and  C_11
    7  A    between atoms: C_11  and  C_12
    8  A    between atoms: C_12  and  C_13
    9  A    between atoms: C_13  and  C_14
   10  A    between atoms: C_15  and  C_16
   11  A    between atoms: C_16  and  C_17
   12  A    between atoms: C_16  and  C_18
   13  A    between atoms: C_21  and  O_22
                            x       y       z     vdW  Elec       q    Type
                         _______ _______ _______ _____ _____    ______ ____

>  <TORSDO>
F 10

>  <SCORE>
-6.114

>  <RMSD_LB>
1.953

>  <RMSD_UB>
5.064

$$$$
CHEMBL3187928
 OpenBabel10172500533D

 24 24  0  0  0  0  0  0  0  0999 V2000
  144.4000  139.8010  150.6940 N   0  0  0  0  0  0  0  0  0  0  0  0
  143.6670  138.9620  151.4940 C   0  0  0  0  0  0  0  0  0  0  0  0
  143.1870  139.3060  152.5820 O   0  0  0  0  0  0  0  0  0  0  0  0
  144.7470  139.4690  149.8350 H   0  0  0  0  0  0  0  0  0  0  0  0
  144.6690  141.1650  151.0900 C   0  0  0  0  0  2  0  0  0  0  0  0
  147.8490  141.1640  153.2590 C   0  0  0  0  0  0  0  0  0  0  0  0
  146.5300  140.9530  152.8340 C   0  0  0  0  0  3  0  0  0  0  0  0
  146.0780  141.4100  151.5830 C   0  0  0  0  0  0  0  0  0  0  0  0
  146.9920  142.0700  150.7490 C   0  0  0  0  0  3  0  0  0  0  0  0
  148.3090  142.2930  151.1610 C   0  0  0  0  0  3  0  0  0  0  0  0
  148.7300  141.8430  152.4090 C   0  0  0  0  0  0  0  0  0  0  0  0
  148.0240  139.4320  154.8840 C   0  0  0  0  0  1  0  0  0  0  0  0
  148.3490  140.7530  154.4700 O   0  0  0  0  0  0  0  0  0  0  0  0
  150.0190  142.0660  152.8180 O   0  0  0  0  0  0  0  0  0  0  0  0
  150.3870  141.5510  153.5080 H   0  0  0  0  0  0  0  0  0  0  0  0
  143.5010  137.5770  150.9150 C   0  0  0  0  0  2  0  0  0  0  0  0
  142.1040  137.0290  151.1790 C   0  0  0  0  0  2  0  0  0  0  0  0
  141.0450  137.7260  150.3210 C   0  0  0  0  0  2  0  0  0  0  0  0
  139.7260  137.8210  151.0850 C   0  0  0  0  0  2  0  0  0  0  0  0
  139.9440  137.7760  152.5670 C   0  0  0  0  0  3  0  0  0  0  0  0
  139.3460  138.6240  153.4190 C   0  0  0  0  0  3  0  0  0  0  0  0
  139.5830  138.6080  154.9080 C   0  0  0  0  0  3  0  0  0  0  0  0
  138.5830  137.6930  155.6160 C   0  0  0  0  0  1  0  0  0  0  0  0
  141.0110  138.1640  155.2230 C   0  0  0  0  0  1  0  0  0  0  0  0
  1  5  1  0  0  0  0
  1  2  1  0  0  0  0
  2  3  2  0  0  0  0
  4  1  1  0  0  0  0
  5  8  1  0  0  0  0
  6 13  1  0  0  0  0
  7  6  1  0  0  0  0
  8  7  2  0  0  0  0
  9 10  2  0  0  0  0
  9  8  1  0  0  0  0
 10 11  1  0  0  0  0
 11 14  1  0  0  0  0
 11  6  2  0  0  0  0
 13 12  1  0  0  0  0
 14 15  1  0  0  0  0
 16 17  1  0  0  0  0
 16  2  1  0  0  0  0
 18 19  1  0  0  0  0
 18 17  1  0  0  0  0
 19 20  1  0  0  0  0
 20 21  2  0  0  0  0
 21 22  1  0  0  0  0
 22 24  1  0  0  0  0
 22 23  1  0  0  0  0
M  END
>  <MODEL>
8

>  <REMARK>
 VINA RESULT:    -6.104      6.132     10.140
 INTER + INTRA:         -10.347
 INTER:                  -9.309
 INTRA:                  -1.038
 UNBOUND:                -0.853
  Name = CHEMBL3187928
  13 active torsions:
  status: ('A' for Active; 'I' for Inactive)
    1  A    between atoms: C_1  and  O_2
    2  A    between atoms: O_2  and  C_3
    3  A    between atoms: C_5  and  C_6
    4  A    between atoms: C_6  and  N_7
    5  A    between atoms: C_8  and  C_10
    6  A    between atoms: C_10  and  C_11
    7  A    between atoms: C_11  and  C_12
    8  A    between atoms: C_12  and  C_13
    9  A    between atoms: C_13  and  C_14
   10  A    between atoms: C_15  and  C_16
   11  A    between atoms: C_16  and  C_17
   12  A    between atoms: C_16  and  C_18
   13  A    between atoms: C_21  and  O_22
                            x       y       z     vdW  Elec       q    Type
                         _______ _______ _______ _____ _____    ______ ____

>  <TORSDO>
F 10

>  <SCORE>
-6.104

>  <RMSD_LB>
6.132

>  <RMSD_UB>
10.140

$$$$
CHEMBL3187928
 OpenBabel10172500533D

 24 24  0  0  0  0  0  0  0  0999 V2000
  136.8980  132.9130  145.5340 N   0  0  0  0  0  0  0  0  0  0  0  0
  136.3280  131.7080  145.2130 C   0  0  0  0  0  0  0  0  0  0  0  0
  136.0250  130.8530  146.0550 O   0  0  0  0  0  0  0  0  0  0  0  0
  137.1080  133.5550  144.8170 H   0  0  0  0  0  0  0  0  0  0  0  0
  137.1950  133.2580  146.9050 C   0  0  0  0  0  2  0  0  0  0  0  0
  133.9890  134.6020  148.5590 C   0  0  0  0  0  0  0  0  0  0  0  0
  134.9000  133.7420  147.9290 C   0  0  0  0  0  3  0  0  0  0  0  0
  136.1850  134.1770  147.5570 C   0  0  0  0  0  0  0  0  0  0  0  0
  136.5490  135.4980  147.8530 C   0  0  0  0  0  3  0  0  0  0  0  0
  135.6510  136.3680  148.4760 C   0  0  0  0  0  3  0  0  0  0  0  0
  134.3790  135.9200  148.8240 C   0  0  0  0  0  0  0  0  0  0  0  0
  132.5800  133.6300  150.2140 C   0  0  0  0  0  1  0  0  0  0  0  0
  132.7190  134.2440  148.9390 O   0  0  0  0  0  0  0  0  0  0  0  0
  133.4950  136.7730  149.4290 O   0  0  0  0  0  0  0  0  0  0  0  0
  132.8260  137.1900  148.9240 H   0  0  0  0  0  0  0  0  0  0  0  0
  136.1030  131.5280  143.7300 C   0  0  0  0  0  2  0  0  0  0  0  0
  137.3750  131.8010  142.9380 C   0  0  0  0  0  2  0  0  0  0  0  0
  137.1590  132.8690  141.8620 C   0  0  0  0  0  2  0  0  0  0  0  0
  138.0930  134.0540  142.0990 C   0  0  0  0  0  2  0  0  0  0  0  0
  137.4370  135.1100  142.9370 C   0  0  0  0  0  3  0  0  0  0  0  0
  136.1070  135.2940  142.9710 C   0  0  0  0  0  3  0  0  0  0  0  0
  135.4400  136.3730  143.7860 C   0  0  0  0  0  3  0  0  0  0  0  0
  134.4270  135.7780  144.7650 C   0  0  0  0  0  1  0  0  0  0  0  0
  136.4790  137.1990  144.5440 C   0  0  0  0  0  1  0  0  0  0  0  0
  1  5  1  0  0  0  0
  2  1  1  0  0  0  0
  2  3  2  0  0  0  0
  4  1  1  0  0  0  0
  5  8  1  0  0  0  0
  6 11  1  0  0  0  0
  6 13  1  0  0  0  0
  7  6  2  0  0  0  0
  8  9  2  0  0  0  0
  8  7  1  0  0  0  0
  9 10  1  0  0  0  0
 10 11  2  0  0  0  0
 11 14  1  0  0  0  0
 13 12  1  0  0  0  0
 15 14  1  0  0  0  0
 16  2  1  0  0  0  0
 17 16  1  0  0  0  0
 18 19  1  0  0  0  0
 18 17  1  0  0  0  0
 19 20  1  0  0  0  0
 20 21  2  0  0  0  0
 21 22  1  0  0  0  0
 22 24  1  0  0  0  0
 22 23  1  0  0  0  0
M  END
>  <MODEL>
9

>  <REMARK>
 VINA RESULT:    -6.005      6.779      9.339
 INTER + INTRA:         -10.194
 INTER:                  -8.389
 INTRA:                  -1.805
 UNBOUND:                -0.853
  Name = CHEMBL3187928
  13 active torsions:
  status: ('A' for Active; 'I' for Inactive)
    1  A    between atoms: C_1  and  O_2
    2  A    between atoms: O_2  and  C_3
    3  A    between atoms: C_5  and  C_6
    4  A    between atoms: C_6  and  N_7
    5  A    between atoms: C_8  and  C_10
    6  A    between atoms: C_10  and  C_11
    7  A    between atoms: C_11  and  C_12
    8  A    between atoms: C_12  and  C_13
    9  A    between atoms: C_13  and  C_14
   10  A    between atoms: C_15  and  C_16
   11  A    between atoms: C_16  and  C_17
   12  A    between atoms: C_16  and  C_18
   13  A    between atoms: C_21  and  O_22
                            x       y       z     vdW  Elec       q    Type
                         _______ _______ _______ _____ _____    ______ ____

>  <TORSDO>
F 10

>  <SCORE>
-6.005

>  <RMSD_LB>
6.779

>  <RMSD_UB>
9.339

$$$$
