CHEMBL1669581
 OpenBabel10162523443D

 25 25  0  0  0  0  0  0  0  0999 V2000
  139.7410  138.1850  153.6320 C   0  0  0  0  0  0  0  0  0  0  0  0
  138.6590  138.1280  153.0600 O   0  0  0  0  0  0  0  0  0  0  0  0
  139.8830  138.1120  155.0000 N   0  0  0  0  0  0  0  0  0  0  0  0
  140.7780  138.1690  155.4050 H   0  0  0  0  0  0  0  0  0  0  0  0
  142.1800  138.3490  153.5840 C   0  0  0  0  0  3  0  0  0  0  0  0
  141.0240  138.3460  152.9000 C   0  0  0  0  0  3  0  0  0  0  0  0
  143.9190  139.6520  152.4500 C   0  0  0  0  0  3  0  0  0  0  0  0
  143.4810  138.4920  152.9660 C   0  0  0  0  0  3  0  0  0  0  0  0
  145.2580  139.8270  151.7850 C   0  0  0  0  0  2  0  0  0  0  0  0
  146.1620  140.7910  152.5600 C   0  0  0  0  0  2  0  0  0  0  0  0
  145.7820  142.2500  152.2880 C   0  0  0  0  0  2  0  0  0  0  0  0
  146.9350  142.6440  150.0780 C   0  0  0  0  0  1  0  0  0  0  0  0
  145.5980  142.5160  150.7930 C   0  0  0  0  0  2  0  0  0  0  0  0
  138.7100  137.9490  155.8450 C   0  0  0  0  0  2  0  0  0  0  0  0
  138.6910  136.6220  156.6060 C   0  0  0  0  0  2  0  0  0  0  0  0
  137.3000  136.0380  156.6960 C   0  0  0  0  0  0  0  0  0  0  0  0
  136.5570  135.7890  155.5380 C   0  0  0  0  0  3  0  0  0  0  0  0
  135.2850  135.2210  155.6230 C   0  0  0  0  0  3  0  0  0  0  0  0
  134.7360  134.8920  156.8680 C   0  0  0  0  0  0  0  0  0  0  0  0
  135.4580  135.1330  158.0410 C   0  0  0  0  0  0  0  0  0  0  0  0
  136.7390  135.7030  157.9380 C   0  0  0  0  0  3  0  0  0  0  0  0
  133.4890  134.3320  156.8950 O   0  0  0  0  0  0  0  0  0  0  0  0
  133.3880  133.4070  156.7890 H   0  0  0  0  0  0  0  0  0  0  0  0
  135.0870  134.8830  159.3350 O   0  0  0  0  0  0  0  0  0  0  0  0
  134.2690  135.8370  159.9960 C   0  0  0  0  0  1  0  0  0  0  0  0
  1  3  1  0  0  0  0
  2  1  2  0  0  0  0
  3  4  1  0  0  0  0
  3 14  1  0  0  0  0
  6  5  2  0  0  0  0
  6  1  1  0  0  0  0
  7  8  2  0  0  0  0
  8  5  1  0  0  0  0
  9  7  1  0  0  0  0
  9 10  1  0  0  0  0
 11 10  1  0  0  0  0
 12 13  1  0  0  0  0
 13 11  1  0  0  0  0
 14 15  1  0  0  0  0
 15 16  1  0  0  0  0
 16 21  1  0  0  0  0
 17 18  1  0  0  0  0
 17 16  2  0  0  0  0
 18 19  2  0  0  0  0
 19 22  1  0  0  0  0
 19 20  1  0  0  0  0
 20 24  1  0  0  0  0
 21 20  2  0  0  0  0
 23 22  1  0  0  0  0
 24 25  1  0  0  0  0
M  END
>  <MODEL>
1

>  <REMARK>
 VINA RESULT:    -6.683      0.000      0.000
 INTER + INTRA:         -11.480
 INTER:                 -10.770
 INTRA:                  -0.711
 UNBOUND:                -0.696
  Name = CHEMBL1669581
  13 active torsions:
  status: ('A' for Active; 'I' for Inactive)
    1  A    between atoms: C_1  and  C_2
    2  A    between atoms: C_2  and  C_3
    3  A    between atoms: C_3  and  C_4
    4  A    between atoms: C_4  and  C_5
    5  A    between atoms: C_5  and  C_6
    6  A    between atoms: C_7  and  C_8
    7  A    between atoms: C_9  and  C_10
    8  A    between atoms: N_12  and  C_13
    9  A    between atoms: C_13  and  C_14
   10  A    between atoms: C_14  and  C_15
   11  A    between atoms: C_18  and  O_19
   12  A    between atoms: C_20  and  O_21
   13  A    between atoms: O_21  and  C_22
                            x       y       z     vdW  Elec       q    Type
                         _______ _______ _______ _____ _____    ______ ____

>  <TORSDO>
F 11

>  <SCORE>
-6.683

>  <RMSD_LB>
0.000

>  <RMSD_UB>
0.000

$$$$
CHEMBL1669581
 OpenBabel10162523443D

 25 25  0  0  0  0  0  0  0  0999 V2000
  139.6500  137.9990  153.4530 C   0  0  0  0  0  0  0  0  0  0  0  0
  138.6960  137.7720  152.7200 O   0  0  0  0  0  0  0  0  0  0  0  0
  139.5430  138.1540  154.8180 N   0  0  0  0  0  0  0  0  0  0  0  0
  140.3450  138.3410  155.3560 H   0  0  0  0  0  0  0  0  0  0  0  0
  141.8540  139.0600  153.4750 C   0  0  0  0  0  3  0  0  0  0  0  0
  141.0380  138.1380  152.9380 C   0  0  0  0  0  3  0  0  0  0  0  0
  143.5410  139.8440  151.8800 C   0  0  0  0  0  3  0  0  0  0  0  0
  143.2220  139.2690  153.0510 C   0  0  0  0  0  3  0  0  0  0  0  0
  144.9530  140.0580  151.4030 C   0  0  0  0  0  2  0  0  0  0  0  0
  145.8470  140.6430  152.5020 C   0  0  0  0  0  2  0  0  0  0  0  0
  146.0500  142.1490  152.3120 C   0  0  0  0  0  2  0  0  0  0  0  0
  146.9200  142.6670  150.0000 C   0  0  0  0  0  1  0  0  0  0  0  0
  145.6900  142.5920  150.8920 C   0  0  0  0  0  2  0  0  0  0  0  0
  138.2430  138.0390  155.4610 C   0  0  0  0  0  2  0  0  0  0  0  0
  138.2630  137.1630  156.7150 C   0  0  0  0  0  2  0  0  0  0  0  0
  137.0320  136.2920  156.8200 C   0  0  0  0  0  0  0  0  0  0  0  0
  136.6610  135.7300  158.0440 C   0  0  0  0  0  3  0  0  0  0  0  0
  135.5070  134.9500  158.1430 C   0  0  0  0  0  3  0  0  0  0  0  0
  134.7060  134.7230  157.0180 C   0  0  0  0  0  0  0  0  0  0  0  0
  135.0560  135.2740  155.7810 C   0  0  0  0  0  0  0  0  0  0  0  0
  136.2210  136.0580  155.6990 C   0  0  0  0  0  3  0  0  0  0  0  0
  133.5830  133.9580  157.1700 O   0  0  0  0  0  0  0  0  0  0  0  0
  132.7830  134.3520  157.4580 H   0  0  0  0  0  0  0  0  0  0  0  0
  134.4040  135.1580  154.5830 O   0  0  0  0  0  0  0  0  0  0  0  0
  134.6510  134.0060  153.7910 C   0  0  0  0  0  1  0  0  0  0  0  0
  1  3  1  0  0  0  0
  2  1  2  0  0  0  0
  3  4  1  0  0  0  0
  3 14  1  0  0  0  0
  6  1  1  0  0  0  0
  6  5  2  0  0  0  0
  7  8  2  0  0  0  0
  8  5  1  0  0  0  0
  9  7  1  0  0  0  0
  9 10  1  0  0  0  0
 11 10  1  0  0  0  0
 12 13  1  0  0  0  0
 13 11  1  0  0  0  0
 14 15  1  0  0  0  0
 15 16  1  0  0  0  0
 16 17  1  0  0  0  0
 17 18  2  0  0  0  0
 19 22  1  0  0  0  0
 19 18  1  0  0  0  0
 20 19  2  0  0  0  0
 21 20  1  0  0  0  0
 21 16  2  0  0  0  0
 22 23  1  0  0  0  0
 24 20  1  0  0  0  0
 25 24  1  0  0  0  0
M  END
>  <MODEL>
2

>  <REMARK>
 VINA RESULT:    -6.511      0.886      2.008
 INTER + INTRA:         -11.204
 INTER:                 -10.541
 INTRA:                  -0.663
 UNBOUND:                -0.696
  Name = CHEMBL1669581
  13 active torsions:
  status: ('A' for Active; 'I' for Inactive)
    1  A    between atoms: C_1  and  C_2
    2  A    between atoms: C_2  and  C_3
    3  A    between atoms: C_3  and  C_4
    4  A    between atoms: C_4  and  C_5
    5  A    between atoms: C_5  and  C_6
    6  A    between atoms: C_7  and  C_8
    7  A    between atoms: C_9  and  C_10
    8  A    between atoms: N_12  and  C_13
    9  A    between atoms: C_13  and  C_14
   10  A    between atoms: C_14  and  C_15
   11  A    between atoms: C_18  and  O_19
   12  A    between atoms: C_20  and  O_21
   13  A    between atoms: O_21  and  C_22
                            x       y       z     vdW  Elec       q    Type
                         _______ _______ _______ _____ _____    ______ ____

>  <TORSDO>
F 11

>  <SCORE>
-6.511

>  <RMSD_LB>
0.886

>  <RMSD_UB>
2.008

$$$$
CHEMBL1669581
 OpenBabel10162523443D

 25 25  0  0  0  0  0  0  0  0999 V2000
  144.4830  137.1260  150.5160 C   0  0  0  0  0  0  0  0  0  0  0  0
  145.2310  136.1650  150.6450 O   0  0  0  0  0  0  0  0  0  0  0  0
  144.8280  138.2750  149.8390 N   0  0  0  0  0  0  0  0  0  0  0  0
  144.1860  139.0180  149.7720 H   0  0  0  0  0  0  0  0  0  0  0  0
  142.9120  137.7020  152.3000 C   0  0  0  0  0  3  0  0  0  0  0  0
  143.1120  137.1530  151.0900 C   0  0  0  0  0  3  0  0  0  0  0  0
  140.4650  137.8320  152.2530 C   0  0  0  0  0  3  0  0  0  0  0  0
  141.6170  137.7850  152.9410 C   0  0  0  0  0  3  0  0  0  0  0  0
  139.1050  137.9370  152.8910 C   0  0  0  0  0  2  0  0  0  0  0  0
  139.1850  138.4590  154.3300 C   0  0  0  0  0  2  0  0  0  0  0  0
  138.2120  137.7130  155.2480 C   0  0  0  0  0  2  0  0  0  0  0  0
  140.4020  137.4700  156.4790 C   0  0  0  0  0  1  0  0  0  0  0  0
  138.9000  137.2360  156.5290 C   0  0  0  0  0  2  0  0  0  0  0  0
  146.1400  138.3870  149.2200 C   0  0  0  0  0  2  0  0  0  0  0  0
  146.6950  139.8120  149.2300 C   0  0  0  0  0  2  0  0  0  0  0  0
  146.5280  140.4780  150.5770 C   0  0  0  0  0  0  0  0  0  0  0  0
  145.7910  141.6590  150.7000 C   0  0  0  0  0  3  0  0  0  0  0  0
  145.6150  142.2540  151.9510 C   0  0  0  0  0  3  0  0  0  0  0  0
  146.1710  141.6760  153.0970 C   0  0  0  0  0  0  0  0  0  0  0  0
  146.9130  140.4950  153.0000 C   0  0  0  0  0  0  0  0  0  0  0  0
  147.0810  139.9070  151.7340 C   0  0  0  0  0  3  0  0  0  0  0  0
  145.9620  142.2960  154.2980 O   0  0  0  0  0  0  0  0  0  0  0  0
  146.2500  141.8890  155.0910 H   0  0  0  0  0  0  0  0  0  0  0  0
  147.5300  139.7930  154.0010 O   0  0  0  0  0  0  0  0  0  0  0  0
  146.7560  138.8630  154.7460 C   0  0  0  0  0  1  0  0  0  0  0  0
  1  2  2  0  0  0  0
  1  6  1  0  0  0  0
  3  1  1  0  0  0  0
  4  3  1  0  0  0  0
  5  8  1  0  0  0  0
  6  5  2  0  0  0  0
  7  9  1  0  0  0  0
  7  8  2  0  0  0  0
  9 10  1  0  0  0  0
 10 11  1  0  0  0  0
 11 13  1  0  0  0  0
 12 13  1  0  0  0  0
 14 15  1  0  0  0  0
 14  3  1  0  0  0  0
 15 16  1  0  0  0  0
 16 17  2  0  0  0  0
 16 21  1  0  0  0  0
 17 18  1  0  0  0  0
 18 19  2  0  0  0  0
 19 22  1  0  0  0  0
 20 19  1  0  0  0  0
 20 24  1  0  0  0  0
 21 20  2  0  0  0  0
 22 23  1  0  0  0  0
 24 25  1  0  0  0  0
M  END
>  <MODEL>
3

>  <REMARK>
 VINA RESULT:    -6.341      5.078     10.256
 INTER + INTRA:         -10.929
 INTER:                  -9.905
 INTRA:                  -1.024
 UNBOUND:                -0.696
  Name = CHEMBL1669581
  13 active torsions:
  status: ('A' for Active; 'I' for Inactive)
    1  A    between atoms: C_1  and  C_2
    2  A    between atoms: C_2  and  C_3
    3  A    between atoms: C_3  and  C_4
    4  A    between atoms: C_4  and  C_5
    5  A    between atoms: C_5  and  C_6
    6  A    between atoms: C_7  and  C_8
    7  A    between atoms: C_9  and  C_10
    8  A    between atoms: N_12  and  C_13
    9  A    between atoms: C_13  and  C_14
   10  A    between atoms: C_14  and  C_15
   11  A    between atoms: C_18  and  O_19
   12  A    between atoms: C_20  and  O_21
   13  A    between atoms: O_21  and  C_22
                            x       y       z     vdW  Elec       q    Type
                         _______ _______ _______ _____ _____    ______ ____

>  <TORSDO>
F 11

>  <SCORE>
-6.341

>  <RMSD_LB>
5.078

>  <RMSD_UB>
10.256

$$$$
CHEMBL1669581
 OpenBabel10162523443D

 25 25  0  0  0  0  0  0  0  0999 V2000
  141.2280  138.2080  152.6310 C   0  0  0  0  0  0  0  0  0  0  0  0
  141.1790  137.8350  153.7970 O   0  0  0  0  0  0  0  0  0  0  0  0
  140.1300  138.2640  151.8020 N   0  0  0  0  0  0  0  0  0  0  0  0
  140.2310  138.5660  150.8710 H   0  0  0  0  0  0  0  0  0  0  0  0
  142.4780  139.6630  151.1140 C   0  0  0  0  0  3  0  0  0  0  0  0
  142.4950  138.6390  151.9830 C   0  0  0  0  0  3  0  0  0  0  0  0
  144.4500  141.1110  150.9630 C   0  0  0  0  0  3  0  0  0  0  0  0
  143.6550  140.1640  150.4370 C   0  0  0  0  0  3  0  0  0  0  0  0
  145.6700  141.6640  150.2760 C   0  0  0  0  0  2  0  0  0  0  0  0
  146.6830  142.2310  151.2750 C   0  0  0  0  0  2  0  0  0  0  0  0
  146.0850  142.3280  152.6820 C   0  0  0  0  0  2  0  0  0  0  0  0
  148.4780  141.8360  153.3130 C   0  0  0  0  0  1  0  0  0  0  0  0
  147.0200  141.7310  153.7350 C   0  0  0  0  0  2  0  0  0  0  0  0
  138.8210  137.8750  152.3050 C   0  0  0  0  0  2  0  0  0  0  0  0
  137.9010  137.3060  151.2230 C   0  0  0  0  0  2  0  0  0  0  0  0
  136.7060  136.5910  151.8110 C   0  0  0  0  0  0  0  0  0  0  0  0
  136.5940  136.4110  153.1920 C   0  0  0  0  0  3  0  0  0  0  0  0
  135.4750  135.7760  153.7340 C   0  0  0  0  0  3  0  0  0  0  0  0
  134.4490  135.3140  152.9010 C   0  0  0  0  0  0  0  0  0  0  0  0
  134.5380  135.4800  151.5160 C   0  0  0  0  0  0  0  0  0  0  0  0
  135.6710  136.1230  150.9860 C   0  0  0  0  0  3  0  0  0  0  0  0
  133.3720  134.7050  153.4830 O   0  0  0  0  0  0  0  0  0  0  0  0
  133.3850  134.5040  154.3980 H   0  0  0  0  0  0  0  0  0  0  0  0
  133.6440  135.0940  150.5530 O   0  0  0  0  0  0  0  0  0  0  0  0
  133.7130  135.7220  149.2810 C   0  0  0  0  0  1  0  0  0  0  0  0
  1  2  2  0  0  0  0
  3 14  1  0  0  0  0
  3  1  1  0  0  0  0
  4  3  1  0  0  0  0
  5  6  2  0  0  0  0
  6  1  1  0  0  0  0
  8  7  2  0  0  0  0
  8  5  1  0  0  0  0
  9  7  1  0  0  0  0
  9 10  1  0  0  0  0
 10 11  1  0  0  0  0
 11 13  1  0  0  0  0
 12 13  1  0  0  0  0
 15 16  1  0  0  0  0
 15 14  1  0  0  0  0
 16 17  1  0  0  0  0
 17 18  2  0  0  0  0
 19 22  1  0  0  0  0
 19 18  1  0  0  0  0
 20 19  2  0  0  0  0
 21 20  1  0  0  0  0
 21 16  2  0  0  0  0
 22 23  1  0  0  0  0
 24 20  1  0  0  0  0
 25 24  1  0  0  0  0
M  END
>  <MODEL>
4

>  <REMARK>
 VINA RESULT:    -6.318      3.119      4.533
 INTER + INTRA:         -10.891
 INTER:                 -10.200
 INTRA:                  -0.691
 UNBOUND:                -0.696
  Name = CHEMBL1669581
  13 active torsions:
  status: ('A' for Active; 'I' for Inactive)
    1  A    between atoms: C_1  and  C_2
    2  A    between atoms: C_2  and  C_3
    3  A    between atoms: C_3  and  C_4
    4  A    between atoms: C_4  and  C_5
    5  A    between atoms: C_5  and  C_6
    6  A    between atoms: C_7  and  C_8
    7  A    between atoms: C_9  and  C_10
    8  A    between atoms: N_12  and  C_13
    9  A    between atoms: C_13  and  C_14
   10  A    between atoms: C_14  and  C_15
   11  A    between atoms: C_18  and  O_19
   12  A    between atoms: C_20  and  O_21
   13  A    between atoms: O_21  and  C_22
                            x       y       z     vdW  Elec       q    Type
                         _______ _______ _______ _____ _____    ______ ____

>  <TORSDO>
F 11

>  <SCORE>
-6.318

>  <RMSD_LB>
3.119

>  <RMSD_UB>
4.533

$$$$
CHEMBL1669581
 OpenBabel10162523443D

 25 25  0  0  0  0  0  0  0  0999 V2000
  137.8970  137.4680  151.2330 C   0  0  0  0  0  0  0  0  0  0  0  0
  138.6030  137.8850  150.3230 O   0  0  0  0  0  0  0  0  0  0  0  0
  138.0640  137.8260  152.5530 N   0  0  0  0  0  0  0  0  0  0  0  0
  137.4690  137.4540  153.2430 H   0  0  0  0  0  0  0  0  0  0  0  0
  136.1150  136.0090  152.0570 C   0  0  0  0  0  3  0  0  0  0  0  0
  136.7780  136.5160  151.0040 C   0  0  0  0  0  3  0  0  0  0  0  0
  134.9390  134.1480  150.9800 C   0  0  0  0  0  3  0  0  0  0  0  0
  135.0090  135.0830  151.9410 C   0  0  0  0  0  3  0  0  0  0  0  0
  133.7930  133.1840  150.8220 C   0  0  0  0  0  2  0  0  0  0  0  0
  132.6790  133.7560  149.9400 C   0  0  0  0  0  2  0  0  0  0  0  0
  132.9510  133.4930  148.4560 C   0  0  0  0  0  2  0  0  0  0  0  0
  132.9530  136.0160  148.5460 C   0  0  0  0  0  1  0  0  0  0  0  0
  133.2610  134.7880  147.7020 C   0  0  0  0  0  2  0  0  0  0  0  0
  139.1190  138.7560  152.9240 C   0  0  0  0  0  2  0  0  0  0  0  0
  140.1600  138.1470  153.8650 C   0  0  0  0  0  2  0  0  0  0  0  0
  141.5430  138.1370  153.2540 C   0  0  0  0  0  0  0  0  0  0  0  0
  141.8030  137.3970  152.0970 C   0  0  0  0  0  3  0  0  0  0  0  0
  143.0740  137.4150  151.5190 C   0  0  0  0  0  3  0  0  0  0  0  0
  144.1020  138.1740  152.0880 C   0  0  0  0  0  0  0  0  0  0  0  0
  143.8670  138.9220  153.2460 C   0  0  0  0  0  0  0  0  0  0  0  0
  142.5820  138.8950  153.8150 C   0  0  0  0  0  3  0  0  0  0  0  0
  145.3260  138.1620  151.4780 O   0  0  0  0  0  0  0  0  0  0  0  0
  145.4730  138.6800  150.7120 H   0  0  0  0  0  0  0  0  0  0  0  0
  144.7430  139.7140  153.9400 O   0  0  0  0  0  0  0  0  0  0  0  0
  145.6170  139.0930  154.8720 C   0  0  0  0  0  1  0  0  0  0  0  0
  1  3  1  0  0  0  0
  2  1  2  0  0  0  0
  3 14  1  0  0  0  0
  3  4  1  0  0  0  0
  6  1  1  0  0  0  0
  6  5  2  0  0  0  0
  7  8  2  0  0  0  0
  8  5  1  0  0  0  0
  9  7  1  0  0  0  0
 10  9  1  0  0  0  0
 11 10  1  0  0  0  0
 13 11  1  0  0  0  0
 13 12  1  0  0  0  0
 14 15  1  0  0  0  0
 16 21  1  0  0  0  0
 16 15  1  0  0  0  0
 17 16  2  0  0  0  0
 18 19  2  0  0  0  0
 18 17  1  0  0  0  0
 19 20  1  0  0  0  0
 20 21  2  0  0  0  0
 20 24  1  0  0  0  0
 22 19  1  0  0  0  0
 23 22  1  0  0  0  0
 24 25  1  0  0  0  0
M  END
>  <MODEL>
5

>  <REMARK>
 VINA RESULT:    -6.269      4.722     10.201
 INTER + INTRA:         -10.813
 INTER:                  -9.792
 INTRA:                  -1.022
 UNBOUND:                -0.696
  Name = CHEMBL1669581
  13 active torsions:
  status: ('A' for Active; 'I' for Inactive)
    1  A    between atoms: C_1  and  C_2
    2  A    between atoms: C_2  and  C_3
    3  A    between atoms: C_3  and  C_4
    4  A    between atoms: C_4  and  C_5
    5  A    between atoms: C_5  and  C_6
    6  A    between atoms: C_7  and  C_8
    7  A    between atoms: C_9  and  C_10
    8  A    between atoms: N_12  and  C_13
    9  A    between atoms: C_13  and  C_14
   10  A    between atoms: C_14  and  C_15
   11  A    between atoms: C_18  and  O_19
   12  A    between atoms: C_20  and  O_21
   13  A    between atoms: O_21  and  C_22
                            x       y       z     vdW  Elec       q    Type
                         _______ _______ _______ _____ _____    ______ ____

>  <TORSDO>
F 11

>  <SCORE>
-6.269

>  <RMSD_LB>
4.722

>  <RMSD_UB>
10.201

$$$$
CHEMBL1669581
 OpenBabel10162523443D

 25 25  0  0  0  0  0  0  0  0999 V2000
  133.3460  135.2810  150.8010 C   0  0  0  0  0  0  0  0  0  0  0  0
  132.6370  134.7730  151.6610 O   0  0  0  0  0  0  0  0  0  0  0  0
  134.7210  135.3250  150.8750 N   0  0  0  0  0  0  0  0  0  0  0  0
  135.2390  135.7520  150.1560 H   0  0  0  0  0  0  0  0  0  0  0  0
  133.5850  136.6630  148.7970 C   0  0  0  0  0  3  0  0  0  0  0  0
  132.7880  135.9140  149.5770 C   0  0  0  0  0  3  0  0  0  0  0  0
  133.2050  136.7270  146.3770 C   0  0  0  0  0  3  0  0  0  0  0  0
  133.1420  137.3140  147.5830 C   0  0  0  0  0  3  0  0  0  0  0  0
  132.7690  137.3850  145.0950 C   0  0  0  0  0  2  0  0  0  0  0  0
  133.5330  138.6860  144.8290 C   0  0  0  0  0  2  0  0  0  0  0  0
  132.6830  139.6780  144.0290 C   0  0  0  0  0  2  0  0  0  0  0  0
  131.9860  138.8870  141.7360 C   0  0  0  0  0  1  0  0  0  0  0  0
  133.0320  139.6450  142.5400 C   0  0  0  0  0  2  0  0  0  0  0  0
  135.4050  134.7390  152.0180 C   0  0  0  0  0  2  0  0  0  0  0  0
  136.1250  135.7720  152.8870 C   0  0  0  0  0  2  0  0  0  0  0  0
  135.8470  135.5680  154.3590 C   0  0  0  0  0  0  0  0  0  0  0  0
  134.7290  134.8410  154.7780 C   0  0  0  0  0  3  0  0  0  0  0  0
  134.4920  134.6290  156.1370 C   0  0  0  0  0  3  0  0  0  0  0  0
  135.3710  135.1400  157.0990 C   0  0  0  0  0  0  0  0  0  0  0  0
  136.4960  135.8720  156.7060 C   0  0  0  0  0  0  0  0  0  0  0  0
  136.7210  136.0750  155.3330 C   0  0  0  0  0  3  0  0  0  0  0  0
  135.0960  134.8990  158.4160 O   0  0  0  0  0  0  0  0  0  0  0  0
  135.5650  134.2330  158.8780 H   0  0  0  0  0  0  0  0  0  0  0  0
  137.4550  136.4470  157.4950 O   0  0  0  0  0  0  0  0  0  0  0  0
  137.2090  137.7450  158.0160 C   0  0  0  0  0  1  0  0  0  0  0  0
  1  3  1  0  0  0  0
  1  2  2  0  0  0  0
  3 14  1  0  0  0  0
  4  3  1  0  0  0  0
  5  6  2  0  0  0  0
  6  1  1  0  0  0  0
  7  8  2  0  0  0  0
  8  5  1  0  0  0  0
  9  7  1  0  0  0  0
 10  9  1  0  0  0  0
 11 10  1  0  0  0  0
 12 13  1  0  0  0  0
 13 11  1  0  0  0  0
 14 15  1  0  0  0  0
 15 16  1  0  0  0  0
 16 17  2  0  0  0  0
 16 21  1  0  0  0  0
 17 18  1  0  0  0  0
 18 19  2  0  0  0  0
 19 22  1  0  0  0  0
 20 19  1  0  0  0  0
 20 24  1  0  0  0  0
 21 20  2  0  0  0  0
 22 23  1  0  0  0  0
 24 25  1  0  0  0  0
M  END
>  <MODEL>
6

>  <REMARK>
 VINA RESULT:    -6.100      7.115      9.262
 INTER + INTRA:         -10.540
 INTER:                  -9.816
 INTRA:                  -0.724
 UNBOUND:                -0.696
  Name = CHEMBL1669581
  13 active torsions:
  status: ('A' for Active; 'I' for Inactive)
    1  A    between atoms: C_1  and  C_2
    2  A    between atoms: C_2  and  C_3
    3  A    between atoms: C_3  and  C_4
    4  A    between atoms: C_4  and  C_5
    5  A    between atoms: C_5  and  C_6
    6  A    between atoms: C_7  and  C_8
    7  A    between atoms: C_9  and  C_10
    8  A    between atoms: N_12  and  C_13
    9  A    between atoms: C_13  and  C_14
   10  A    between atoms: C_14  and  C_15
   11  A    between atoms: C_18  and  O_19
   12  A    between atoms: C_20  and  O_21
   13  A    between atoms: O_21  and  C_22
                            x       y       z     vdW  Elec       q    Type
                         _______ _______ _______ _____ _____    ______ ____

>  <TORSDO>
F 11

>  <SCORE>
-6.100

>  <RMSD_LB>
7.115

>  <RMSD_UB>
9.262

$$$$
CHEMBL1669581
 OpenBabel10162523443D

 25 25  0  0  0  0  0  0  0  0999 V2000
  144.2990  136.7380  149.8130 C   0  0  0  0  0  0  0  0  0  0  0  0
  144.8370  135.8170  149.2110 O   0  0  0  0  0  0  0  0  0  0  0  0
  144.9450  137.9060  150.1540 N   0  0  0  0  0  0  0  0  0  0  0  0
  144.4630  138.6100  150.6430 H   0  0  0  0  0  0  0  0  0  0  0  0
  142.5020  137.3430  151.3580 C   0  0  0  0  0  3  0  0  0  0  0  0
  142.8780  136.6870  150.2480 C   0  0  0  0  0  3  0  0  0  0  0  0
  140.0720  137.4370  151.0560 C   0  0  0  0  0  3  0  0  0  0  0  0
  141.1450  137.3630  151.8600 C   0  0  0  0  0  3  0  0  0  0  0  0
  138.6500  137.4770  151.5490 C   0  0  0  0  0  2  0  0  0  0  0  0
  137.6550  137.7190  150.4100 C   0  0  0  0  0  2  0  0  0  0  0  0
  137.9470  139.0370  149.6850 C   0  0  0  0  0  2  0  0  0  0  0  0
  137.2260  139.5390  147.3180 C   0  0  0  0  0  1  0  0  0  0  0  0
  138.2310  138.8110  148.1980 C   0  0  0  0  0  2  0  0  0  0  0  0
  146.3410  138.0960  149.7870 C   0  0  0  0  0  2  0  0  0  0  0  0
  146.7360  139.5680  149.6520 C   0  0  0  0  0  2  0  0  0  0  0  0
  146.5680  140.3230  150.9500 C   0  0  0  0  0  0  0  0  0  0  0  0
  145.9670  141.5860  150.9660 C   0  0  0  0  0  3  0  0  0  0  0  0
  145.7870  142.2670  152.1710 C   0  0  0  0  0  3  0  0  0  0  0  0
  146.2030  141.6960  153.3790 C   0  0  0  0  0  0  0  0  0  0  0  0
  146.8080  140.4350  153.3890 C   0  0  0  0  0  0  0  0  0  0  0  0
  146.9810  139.7610  152.1680 C   0  0  0  0  0  3  0  0  0  0  0  0
  145.9970  142.4020  154.5310 O   0  0  0  0  0  0  0  0  0  0  0  0
  146.6930  142.5020  155.1500 H   0  0  0  0  0  0  0  0  0  0  0  0
  147.2780  139.7260  154.4620 O   0  0  0  0  0  0  0  0  0  0  0  0
  146.3600  138.9280  155.1950 C   0  0  0  0  0  1  0  0  0  0  0  0
  1  3  1  0  0  0  0
  1  6  1  0  0  0  0
  2  1  2  0  0  0  0
  3  4  1  0  0  0  0
  5  8  1  0  0  0  0
  6  5  2  0  0  0  0
  7  9  1  0  0  0  0
  7  8  2  0  0  0  0
 10  9  1  0  0  0  0
 11 10  1  0  0  0  0
 12 13  1  0  0  0  0
 13 11  1  0  0  0  0
 14  3  1  0  0  0  0
 15 14  1  0  0  0  0
 15 16  1  0  0  0  0
 16 17  2  0  0  0  0
 16 21  1  0  0  0  0
 17 18  1  0  0  0  0
 18 19  2  0  0  0  0
 19 20  1  0  0  0  0
 19 22  1  0  0  0  0
 20 24  1  0  0  0  0
 21 20  2  0  0  0  0
 22 23  1  0  0  0  0
 24 25  1  0  0  0  0
M  END
>  <MODEL>
7

>  <REMARK>
 VINA RESULT:    -6.023      6.282     10.190
 INTER + INTRA:         -10.416
 INTER:                  -9.682
 INTRA:                  -0.734
 UNBOUND:                -0.696
  Name = CHEMBL1669581
  13 active torsions:
  status: ('A' for Active; 'I' for Inactive)
    1  A    between atoms: C_1  and  C_2
    2  A    between atoms: C_2  and  C_3
    3  A    between atoms: C_3  and  C_4
    4  A    between atoms: C_4  and  C_5
    5  A    between atoms: C_5  and  C_6
    6  A    between atoms: C_7  and  C_8
    7  A    between atoms: C_9  and  C_10
    8  A    between atoms: N_12  and  C_13
    9  A    between atoms: C_13  and  C_14
   10  A    between atoms: C_14  and  C_15
   11  A    between atoms: C_18  and  O_19
   12  A    between atoms: C_20  and  O_21
   13  A    between atoms: O_21  and  C_22
                            x       y       z     vdW  Elec       q    Type
                         _______ _______ _______ _____ _____    ______ ____

>  <TORSDO>
F 11

>  <SCORE>
-6.023

>  <RMSD_LB>
6.282

>  <RMSD_UB>
10.190

$$$$
CHEMBL1669581
 OpenBabel10162523443D

 25 25  0  0  0  0  0  0  0  0999 V2000
  133.6950  136.2110  148.5360 C   0  0  0  0  0  0  0  0  0  0  0  0
  132.9050  135.8550  149.4010 O   0  0  0  0  0  0  0  0  0  0  0  0
  135.0350  135.8960  148.5510 N   0  0  0  0  0  0  0  0  0  0  0  0
  135.6240  136.2150  147.8300 H   0  0  0  0  0  0  0  0  0  0  0  0
  134.1730  137.2980  146.3970 C   0  0  0  0  0  3  0  0  0  0  0  0
  133.2830  137.0360  147.3690 C   0  0  0  0  0  3  0  0  0  0  0  0
  133.1700  139.2260  145.2660 C   0  0  0  0  0  3  0  0  0  0  0  0
  133.8700  138.0810  145.2190 C   0  0  0  0  0  3  0  0  0  0  0  0
  132.8230  140.0540  144.0570 C   0  0  0  0  0  2  0  0  0  0  0  0
  132.7810  139.2110  142.7780 C   0  0  0  0  0  2  0  0  0  0  0  0
  133.7290  139.7680  141.7110 C   0  0  0  0  0  2  0  0  0  0  0  0
  136.0980  139.9370  142.5680 C   0  0  0  0  0  1  0  0  0  0  0  0
  134.7930  140.6810  142.3250 C   0  0  0  0  0  2  0  0  0  0  0  0
  135.5790  135.0890  149.6330 C   0  0  0  0  0  2  0  0  0  0  0  0
  136.0940  135.9210  150.8090 C   0  0  0  0  0  2  0  0  0  0  0  0
  135.6030  135.3920  152.1370 C   0  0  0  0  0  0  0  0  0  0  0  0
  134.6720  134.3510  152.1880 C   0  0  0  0  0  3  0  0  0  0  0  0
  134.2440  133.8460  153.4170 C   0  0  0  0  0  3  0  0  0  0  0  0
  134.7420  134.3730  154.6140 C   0  0  0  0  0  0  0  0  0  0  0  0
  135.6730  135.4160  154.5900 C   0  0  0  0  0  0  0  0  0  0  0  0
  136.0950  135.9130  153.3440 C   0  0  0  0  0  3  0  0  0  0  0  0
  134.2950  133.8380  155.7900 O   0  0  0  0  0  0  0  0  0  0  0  0
  134.0870  134.3990  156.5110 H   0  0  0  0  0  0  0  0  0  0  0  0
  136.2630  136.0560  155.6480 O   0  0  0  0  0  0  0  0  0  0  0  0
  137.0030  137.2400  155.3900 C   0  0  0  0  0  1  0  0  0  0  0  0
  1  3  1  0  0  0  0
  1  2  2  0  0  0  0
  3 14  1  0  0  0  0
  4  3  1  0  0  0  0
  5  6  2  0  0  0  0
  6  1  1  0  0  0  0
  8  7  2  0  0  0  0
  8  5  1  0  0  0  0
  9  7  1  0  0  0  0
 10  9  1  0  0  0  0
 11 13  1  0  0  0  0
 11 10  1  0  0  0  0
 13 12  1  0  0  0  0
 14 15  1  0  0  0  0
 15 16  1  0  0  0  0
 16 17  2  0  0  0  0
 16 21  1  0  0  0  0
 17 18  1  0  0  0  0
 18 19  2  0  0  0  0
 19 22  1  0  0  0  0
 20 19  1  0  0  0  0
 20 24  1  0  0  0  0
 21 20  2  0  0  0  0
 22 23  1  0  0  0  0
 25 24  1  0  0  0  0
M  END
>  <MODEL>
8

>  <REMARK>
 VINA RESULT:    -5.906      7.944      9.508
 INTER + INTRA:         -10.227
 INTER:                  -9.202
 INTRA:                  -1.025
 UNBOUND:                -0.696
  Name = CHEMBL1669581
  13 active torsions:
  status: ('A' for Active; 'I' for Inactive)
    1  A    between atoms: C_1  and  C_2
    2  A    between atoms: C_2  and  C_3
    3  A    between atoms: C_3  and  C_4
    4  A    between atoms: C_4  and  C_5
    5  A    between atoms: C_5  and  C_6
    6  A    between atoms: C_7  and  C_8
    7  A    between atoms: C_9  and  C_10
    8  A    between atoms: N_12  and  C_13
    9  A    between atoms: C_13  and  C_14
   10  A    between atoms: C_14  and  C_15
   11  A    between atoms: C_18  and  O_19
   12  A    between atoms: C_20  and  O_21
   13  A    between atoms: O_21  and  C_22
                            x       y       z     vdW  Elec       q    Type
                         _______ _______ _______ _____ _____    ______ ____

>  <TORSDO>
F 11

>  <SCORE>
-5.906

>  <RMSD_LB>
7.944

>  <RMSD_UB>
9.508

$$$$
CHEMBL1669581
 OpenBabel10162523443D

 25 25  0  0  0  0  0  0  0  0999 V2000
  141.3040  138.1570  153.2460 C   0  0  0  0  0  0  0  0  0  0  0  0
  141.5340  138.1500  154.4490 O   0  0  0  0  0  0  0  0  0  0  0  0
  142.2380  138.5000  152.2940 N   0  0  0  0  0  0  0  0  0  0  0  0
  141.9940  138.4940  151.3410 H   0  0  0  0  0  0  0  0  0  0  0  0
  139.5820  138.3340  151.5180 C   0  0  0  0  0  3  0  0  0  0  0  0
  139.9750  137.7950  152.6850 C   0  0  0  0  0  3  0  0  0  0  0  0
  137.7090  136.8470  150.9830 C   0  0  0  0  0  3  0  0  0  0  0  0
  138.3140  138.0420  150.8850 C   0  0  0  0  0  3  0  0  0  0  0  0
  136.4000  136.5070  150.3210 C   0  0  0  0  0  2  0  0  0  0  0  0
  136.2500  135.0010  150.0850 C   0  0  0  0  0  2  0  0  0  0  0  0
  135.0490  134.4340  150.8480 C   0  0  0  0  0  2  0  0  0  0  0  0
  134.4020  135.2440  153.1500 C   0  0  0  0  0  1  0  0  0  0  0  0
  135.3290  134.3400  152.3500 C   0  0  0  0  0  2  0  0  0  0  0  0
  143.5850  138.8730  152.7000 C   0  0  0  0  0  2  0  0  0  0  0  0
  144.1110  140.1170  151.9830 C   0  0  0  0  0  2  0  0  0  0  0  0
  145.4080  140.6120  152.5820 C   0  0  0  0  0  0  0  0  0  0  0  0
  145.9330  141.8550  152.2130 C   0  0  0  0  0  3  0  0  0  0  0  0
  147.1150  142.3210  152.7910 C   0  0  0  0  0  3  0  0  0  0  0  0
  147.7890  141.5530  153.7470 C   0  0  0  0  0  0  0  0  0  0  0  0
  147.2860  140.3060  154.1310 C   0  0  0  0  0  0  0  0  0  0  0  0
  146.0930  139.8520  153.5410 C   0  0  0  0  0  3  0  0  0  0  0  0
  148.9390  142.0590  154.2860 O   0  0  0  0  0  0  0  0  0  0  0  0
  149.7580  141.6300  154.1310 H   0  0  0  0  0  0  0  0  0  0  0  0
  147.8050  139.4220  155.0380 O   0  0  0  0  0  0  0  0  0  0  0  0
  146.9180  138.5120  155.6730 C   0  0  0  0  0  1  0  0  0  0  0  0
  1  2  2  0  0  0  0
  3 14  1  0  0  0  0
  3  1  1  0  0  0  0
  4  3  1  0  0  0  0
  5  6  2  0  0  0  0
  6  1  1  0  0  0  0
  8  7  2  0  0  0  0
  8  5  1  0  0  0  0
  9  7  1  0  0  0  0
 10  9  1  0  0  0  0
 10 11  1  0  0  0  0
 11 13  1  0  0  0  0
 13 12  1  0  0  0  0
 15 16  1  0  0  0  0
 15 14  1  0  0  0  0
 16 21  1  0  0  0  0
 17 16  2  0  0  0  0
 17 18  1  0  0  0  0
 18 19  2  0  0  0  0
 19 20  1  0  0  0  0
 19 22  1  0  0  0  0
 20 24  1  0  0  0  0
 21 20  2  0  0  0  0
 23 22  1  0  0  0  0
 24 25  1  0  0  0  0
M  END
>  <MODEL>
9

>  <REMARK>
 VINA RESULT:    -5.865      4.116     10.794
 INTER + INTRA:         -10.161
 INTER:                  -9.466
 INTRA:                  -0.696
 UNBOUND:                -0.696
  Name = CHEMBL1669581
  13 active torsions:
  status: ('A' for Active; 'I' for Inactive)
    1  A    between atoms: C_1  and  C_2
    2  A    between atoms: C_2  and  C_3
    3  A    between atoms: C_3  and  C_4
    4  A    between atoms: C_4  and  C_5
    5  A    between atoms: C_5  and  C_6
    6  A    between atoms: C_7  and  C_8
    7  A    between atoms: C_9  and  C_10
    8  A    between atoms: N_12  and  C_13
    9  A    between atoms: C_13  and  C_14
   10  A    between atoms: C_14  and  C_15
   11  A    between atoms: C_18  and  O_19
   12  A    between atoms: C_20  and  O_21
   13  A    between atoms: O_21  and  C_22
                            x       y       z     vdW  Elec       q    Type
                         _______ _______ _______ _____ _____    ______ ____

>  <TORSDO>
F 11

>  <SCORE>
-5.865

>  <RMSD_LB>
4.116

>  <RMSD_UB>
10.794

$$$$
