CHEMBL3105775
 OpenBabel10172500423D

 25 26  0  0  0  0  0  0  0  0999 V2000
  145.8920  139.9980  149.0870 C   0  0  0  0  0  0  0  0  0  0  0  0
  146.0650  139.1670  148.2000 O   0  0  0  0  0  0  0  0  0  0  0  0
  146.5930  141.1890  149.0140 N   0  0  0  0  0  0  0  0  0  0  0  0
  147.2950  141.2300  148.3260 H   0  0  0  0  0  0  0  0  0  0  0  0
  142.9760  139.2450  152.1940 C   0  0  0  0  0  0  0  0  0  0  0  0
  142.6210  139.8260  150.9900 C   0  0  0  0  0  3  0  0  0  0  0  0
  143.5840  139.9990  149.9990 C   0  0  0  0  0  3  0  0  0  0  0  0
  144.9470  139.7270  150.2140 C   0  0  0  0  0  0  0  0  0  0  0  0
  145.3100  139.1290  151.4320 C   0  0  0  0  0  0  0  0  0  0  0  0
  144.3100  138.8800  152.3950 C   0  0  0  0  0  3  0  0  0  0  0  0
  142.5900  139.2130  154.5330 C   0  0  0  0  0  1  0  0  0  0  0  0
  142.1110  138.9620  153.2140 O   0  0  0  0  0  0  0  0  0  0  0  0
  146.5290  138.6480  151.8230 O   0  0  0  0  0  0  0  0  0  0  0  0
  146.7460  138.3870  153.2020 C   0  0  0  0  0  1  0  0  0  0  0  0
  146.4290  142.3840  149.8160 C   0  0  0  0  0  2  0  0  0  0  0  0
  147.0000  142.2880  151.1980 C   0  0  0  0  0  0  0  0  0  0  0  0
  148.3470  141.9440  151.3930 C   0  0  0  0  0  3  0  0  0  0  0  0
  148.8400  141.7260  152.6800 C   0  0  0  0  0  3  0  0  0  0  0  0
  147.9830  141.8540  153.7680 C   0  0  0  0  0  0  0  0  0  0  0  0
  146.6500  142.2050  153.5790 C   0  0  0  0  0  0  0  0  0  0  0  0
  146.1520  142.4190  152.3040 C   0  0  0  0  0  3  0  0  0  0  0  0
  148.4040  141.6270  155.0480 O   0  0  0  0  0  0  0  0  0  0  0  0
  147.8060  141.2900  155.6850 H   0  0  0  0  0  0  0  0  0  0  0  0
  145.8060  142.3110  154.6430 O   0  0  0  0  0  0  0  0  0  0  0  0
  146.0830  142.0210  155.4900 H   0  0  0  0  0  0  0  0  0  0  0  0
  1  8  1  0  0  0  0
  2  1  2  0  0  0  0
  3  1  1  0  0  0  0
  3 15  1  0  0  0  0
  4  3  1  0  0  0  0
  5 10  1  0  0  0  0
  5 12  1  0  0  0  0
  6  5  2  0  0  0  0
  7  8  2  0  0  0  0
  7  6  1  0  0  0  0
  8  9  1  0  0  0  0
  9 13  1  0  0  0  0
  9 10  2  0  0  0  0
 12 11  1  0  0  0  0
 13 14  1  0  0  0  0
 15 16  1  0  0  0  0
 16 17  2  0  0  0  0
 16 21  1  0  0  0  0
 17 18  1  0  0  0  0
 18 19  2  0  0  0  0
 19 22  1  0  0  0  0
 20 19  1  0  0  0  0
 20 24  1  0  0  0  0
 21 20  2  0  0  0  0
 22 23  1  0  0  0  0
 24 25  1  0  0  0  0
M  END
>  <MODEL>
1

>  <REMARK>
 VINA RESULT:    -7.260      0.000      0.000
 INTER + INTRA:         -10.914
 INTER:                  -9.649
 INTRA:                  -1.265
 UNBOUND:                -1.108
  Name = CHEMBL3105775
  9 active torsions:
  status: ('A' for Active; 'I' for Inactive)
    1  A    between atoms: C_1  and  O_2
    2  A    between atoms: O_2  and  C_3
    3  A    between atoms: C_6  and  C_7
    4  A    between atoms: N_9  and  C_10
    5  A    between atoms: C_10  and  C_11
    6  A    between atoms: C_14  and  O_15
    7  A    between atoms: C_16  and  O_17
    8  A    between atoms: C_19  and  O_20
    9  A    between atoms: O_20  and  C_21
                            x       y       z     vdW  Elec       q    Type
                         _______ _______ _______ _____ _____    ______ ____

>  <TORSDO>
F 7

>  <SCORE>
-7.260

>  <RMSD_LB>
0.000

>  <RMSD_UB>
0.000

$$$$
CHEMBL3105775
 OpenBabel10172500423D

 25 26  0  0  0  0  0  0  0  0999 V2000
  144.7270  140.3080  149.5770 C   0  0  0  0  0  0  0  0  0  0  0  0
  143.5170  140.1320  149.6930 O   0  0  0  0  0  0  0  0  0  0  0  0
  145.2110  141.6010  149.6680 N   0  0  0  0  0  0  0  0  0  0  0  0
  144.5300  142.3130  149.6760 H   0  0  0  0  0  0  0  0  0  0  0  0
  147.4380  137.0530  148.6990 C   0  0  0  0  0  0  0  0  0  0  0  0
  146.9410  137.8730  147.7020 C   0  0  0  0  0  3  0  0  0  0  0  0
  146.1140  138.9410  148.0390 C   0  0  0  0  0  3  0  0  0  0  0  0
  145.6490  139.1530  149.3490 C   0  0  0  0  0  0  0  0  0  0  0  0
  146.1570  138.3280  150.3660 C   0  0  0  0  0  0  0  0  0  0  0  0
  147.0630  137.3020  150.0220 C   0  0  0  0  0  3  0  0  0  0  0  0
  148.7190  135.3100  149.6690 C   0  0  0  0  0  1  0  0  0  0  0  0
  148.3090  136.0180  148.5020 O   0  0  0  0  0  0  0  0  0  0  0  0
  145.9720  138.4150  151.7170 O   0  0  0  0  0  0  0  0  0  0  0  0
  147.1130  138.5280  152.5550 C   0  0  0  0  0  1  0  0  0  0  0  0
  146.5870  142.0470  149.7520 C   0  0  0  0  0  2  0  0  0  0  0  0
  147.1390  142.0980  151.1440 C   0  0  0  0  0  0  0  0  0  0  0  0
  148.5070  141.8860  151.3790 C   0  0  0  0  0  3  0  0  0  0  0  0
  148.9940  141.8020  152.6840 C   0  0  0  0  0  3  0  0  0  0  0  0
  148.1090  141.9330  153.7490 C   0  0  0  0  0  0  0  0  0  0  0  0
  146.7550  142.1540  153.5200 C   0  0  0  0  0  0  0  0  0  0  0  0
  146.2630  142.2340  152.2280 C   0  0  0  0  0  3  0  0  0  0  0  0
  148.5250  141.8340  155.0470 O   0  0  0  0  0  0  0  0  0  0  0  0
  148.7720  141.0020  155.3980 H   0  0  0  0  0  0  0  0  0  0  0  0
  145.8860  142.2620  154.5640 O   0  0  0  0  0  0  0  0  0  0  0  0
  145.1450  141.6900  154.6180 H   0  0  0  0  0  0  0  0  0  0  0  0
  1  3  1  0  0  0  0
  1  2  2  0  0  0  0
  3  4  1  0  0  0  0
  3 15  1  0  0  0  0
  5 10  1  0  0  0  0
  6  7  1  0  0  0  0
  6  5  2  0  0  0  0
  7  8  2  0  0  0  0
  8  1  1  0  0  0  0
  8  9  1  0  0  0  0
  9 13  1  0  0  0  0
 10  9  2  0  0  0  0
 12  5  1  0  0  0  0
 12 11  1  0  0  0  0
 13 14  1  0  0  0  0
 15 16  1  0  0  0  0
 16 17  2  0  0  0  0
 16 21  1  0  0  0  0
 17 18  1  0  0  0  0
 18 19  2  0  0  0  0
 19 22  1  0  0  0  0
 20 19  1  0  0  0  0
 20 24  1  0  0  0  0
 21 20  2  0  0  0  0
 22 23  1  0  0  0  0
 24 25  1  0  0  0  0
M  END
>  <MODEL>
2

>  <REMARK>
 VINA RESULT:    -6.968      1.999      3.453
 INTER + INTRA:         -10.519
 INTER:                  -9.395
 INTRA:                  -1.125
 UNBOUND:                -1.108
  Name = CHEMBL3105775
  9 active torsions:
  status: ('A' for Active; 'I' for Inactive)
    1  A    between atoms: C_1  and  O_2
    2  A    between atoms: O_2  and  C_3
    3  A    between atoms: C_6  and  C_7
    4  A    between atoms: N_9  and  C_10
    5  A    between atoms: C_10  and  C_11
    6  A    between atoms: C_14  and  O_15
    7  A    between atoms: C_16  and  O_17
    8  A    between atoms: C_19  and  O_20
    9  A    between atoms: O_20  and  C_21
                            x       y       z     vdW  Elec       q    Type
                         _______ _______ _______ _____ _____    ______ ____

>  <TORSDO>
F 7

>  <SCORE>
-6.968

>  <RMSD_LB>
1.999

>  <RMSD_UB>
3.453

$$$$
CHEMBL3105775
 OpenBabel10172500423D

 25 26  0  0  0  0  0  0  0  0999 V2000
  144.8790  140.2650  149.1630 C   0  0  0  0  0  0  0  0  0  0  0  0
  143.7400  139.8370  149.3290 O   0  0  0  0  0  0  0  0  0  0  0  0
  145.1770  141.5310  149.6350 N   0  0  0  0  0  0  0  0  0  0  0  0
  144.4090  142.0620  149.9470 H   0  0  0  0  0  0  0  0  0  0  0  0
  147.8420  137.6980  147.3320 C   0  0  0  0  0  0  0  0  0  0  0  0
  147.3860  137.4770  148.6190 C   0  0  0  0  0  3  0  0  0  0  0  0
  146.3930  138.2970  149.1470 C   0  0  0  0  0  3  0  0  0  0  0  0
  145.9140  139.4350  148.4730 C   0  0  0  0  0  0  0  0  0  0  0  0
  146.3690  139.6590  147.1620 C   0  0  0  0  0  0  0  0  0  0  0  0
  147.3130  138.7700  146.6070 C   0  0  0  0  0  3  0  0  0  0  0  0
  149.5530  137.5810  145.6950 C   0  0  0  0  0  1  0  0  0  0  0  0
  148.7610  136.9240  146.6810 O   0  0  0  0  0  0  0  0  0  0  0  0
  145.9600  140.6010  146.2600 O   0  0  0  0  0  0  0  0  0  0  0  0
  144.8130  140.3300  145.4670 C   0  0  0  0  0  1  0  0  0  0  0  0
  146.4700  142.1780  149.7320 C   0  0  0  0  0  2  0  0  0  0  0  0
  147.0560  142.1900  151.1110 C   0  0  0  0  0  0  0  0  0  0  0  0
  148.4280  141.9620  151.3060 C   0  0  0  0  0  3  0  0  0  0  0  0
  148.9470  141.8420  152.5970 C   0  0  0  0  0  3  0  0  0  0  0  0
  148.0900  141.9520  153.6860 C   0  0  0  0  0  0  0  0  0  0  0  0
  146.7320  142.1880  153.4970 C   0  0  0  0  0  0  0  0  0  0  0  0
  146.2090  142.3040  152.2190 C   0  0  0  0  0  3  0  0  0  0  0  0
  148.5370  141.8180  154.9700 O   0  0  0  0  0  0  0  0  0  0  0  0
  147.9670  141.4810  155.6330 H   0  0  0  0  0  0  0  0  0  0  0  0
  145.8900  142.2760  154.5640 O   0  0  0  0  0  0  0  0  0  0  0  0
  145.2730  142.9800  154.6160 H   0  0  0  0  0  0  0  0  0  0  0  0
  1  2  2  0  0  0  0
  1  3  1  0  0  0  0
  3 15  1  0  0  0  0
  3  4  1  0  0  0  0
  5  6  1  0  0  0  0
  6  7  2  0  0  0  0
  8  7  1  0  0  0  0
  8  1  1  0  0  0  0
  9  8  2  0  0  0  0
 10  9  1  0  0  0  0
 10  5  2  0  0  0  0
 11 12  1  0  0  0  0
 12  5  1  0  0  0  0
 13  9  1  0  0  0  0
 14 13  1  0  0  0  0
 15 16  1  0  0  0  0
 16 17  2  0  0  0  0
 16 21  1  0  0  0  0
 17 18  1  0  0  0  0
 18 19  2  0  0  0  0
 19 22  1  0  0  0  0
 20 19  1  0  0  0  0
 20 24  1  0  0  0  0
 21 20  2  0  0  0  0
 22 23  1  0  0  0  0
 24 25  1  0  0  0  0
M  END
>  <MODEL>
3

>  <REMARK>
 VINA RESULT:    -6.792      2.435      4.744
 INTER + INTRA:         -10.282
 INTER:                  -9.459
 INTRA:                  -0.823
 UNBOUND:                -1.108
  Name = CHEMBL3105775
  9 active torsions:
  status: ('A' for Active; 'I' for Inactive)
    1  A    between atoms: C_1  and  O_2
    2  A    between atoms: O_2  and  C_3
    3  A    between atoms: C_6  and  C_7
    4  A    between atoms: N_9  and  C_10
    5  A    between atoms: C_10  and  C_11
    6  A    between atoms: C_14  and  O_15
    7  A    between atoms: C_16  and  O_17
    8  A    between atoms: C_19  and  O_20
    9  A    between atoms: O_20  and  C_21
                            x       y       z     vdW  Elec       q    Type
                         _______ _______ _______ _____ _____    ______ ____

>  <TORSDO>
F 7

>  <SCORE>
-6.792

>  <RMSD_LB>
2.435

>  <RMSD_UB>
4.744

$$$$
CHEMBL3105775
 OpenBabel10172500423D

 25 26  0  0  0  0  0  0  0  0999 V2000
  144.1940  139.6710  149.7540 C   0  0  0  0  0  0  0  0  0  0  0  0
  144.1280  139.0540  148.6950 O   0  0  0  0  0  0  0  0  0  0  0  0
  144.8910  140.8670  149.7720 N   0  0  0  0  0  0  0  0  0  0  0  0
  145.4120  141.0700  148.9620 H   0  0  0  0  0  0  0  0  0  0  0  0
  142.4990  138.1080  153.4150 C   0  0  0  0  0  0  0  0  0  0  0  0
  143.8290  137.9120  153.0890 C   0  0  0  0  0  3  0  0  0  0  0  0
  144.3430  138.4800  151.9260 C   0  0  0  0  0  3  0  0  0  0  0  0
  143.5340  139.1450  150.9880 C   0  0  0  0  0  0  0  0  0  0  0  0
  142.1840  139.3530  151.3190 C   0  0  0  0  0  0  0  0  0  0  0  0
  141.6960  138.8470  152.5420 C   0  0  0  0  0  3  0  0  0  0  0  0
  141.3460  138.6610  155.4120 C   0  0  0  0  0  1  0  0  0  0  0  0
  141.8980  137.6610  154.5580 O   0  0  0  0  0  0  0  0  0  0  0  0
  141.2380  140.0790  150.6510 O   0  0  0  0  0  0  0  0  0  0  0  0
  140.4270  139.4180  149.6910 C   0  0  0  0  0  1  0  0  0  0  0  0
  144.9560  141.8590  150.8250 C   0  0  0  0  0  2  0  0  0  0  0  0
  146.2920  141.9650  151.4970 C   0  0  0  0  0  0  0  0  0  0  0  0
  147.4700  142.0340  150.7380 C   0  0  0  0  0  3  0  0  0  0  0  0
  148.7170  141.9990  151.3660 C   0  0  0  0  0  3  0  0  0  0  0  0
  148.7780  141.8960  152.7510 C   0  0  0  0  0  0  0  0  0  0  0  0
  147.6110  141.8370  153.5070 C   0  0  0  0  0  0  0  0  0  0  0  0
  146.3710  141.8670  152.8910 C   0  0  0  0  0  3  0  0  0  0  0  0
  149.9690  141.8310  153.4170 O   0  0  0  0  0  0  0  0  0  0  0  0
  150.2300  142.5320  153.9800 H   0  0  0  0  0  0  0  0  0  0  0  0
  147.6720  141.7160  154.8630 O   0  0  0  0  0  0  0  0  0  0  0  0
  147.1520  142.2770  155.4060 H   0  0  0  0  0  0  0  0  0  0  0  0
  1  3  1  0  0  0  0
  1  8  1  0  0  0  0
  2  1  2  0  0  0  0
  3 15  1  0  0  0  0
  4  3  1  0  0  0  0
  5 12  1  0  0  0  0
  6  5  1  0  0  0  0
  7  6  2  0  0  0  0
  8  9  2  0  0  0  0
  8  7  1  0  0  0  0
  9 10  1  0  0  0  0
 10  5  2  0  0  0  0
 12 11  1  0  0  0  0
 13  9  1  0  0  0  0
 14 13  1  0  0  0  0
 15 16  1  0  0  0  0
 16 21  1  0  0  0  0
 17 18  1  0  0  0  0
 17 16  2  0  0  0  0
 18 19  2  0  0  0  0
 19 22  1  0  0  0  0
 19 20  1  0  0  0  0
 20 24  1  0  0  0  0
 21 20  2  0  0  0  0
 22 23  1  0  0  0  0
 24 25  1  0  0  0  0
M  END
>  <MODEL>
4

>  <REMARK>
 VINA RESULT:    -6.605      1.569      2.700
 INTER + INTRA:         -10.029
 INTER:                  -9.098
 INTRA:                  -0.931
 UNBOUND:                -1.108
  Name = CHEMBL3105775
  9 active torsions:
  status: ('A' for Active; 'I' for Inactive)
    1  A    between atoms: C_1  and  O_2
    2  A    between atoms: O_2  and  C_3
    3  A    between atoms: C_6  and  C_7
    4  A    between atoms: N_9  and  C_10
    5  A    between atoms: C_10  and  C_11
    6  A    between atoms: C_14  and  O_15
    7  A    between atoms: C_16  and  O_17
    8  A    between atoms: C_19  and  O_20
    9  A    between atoms: O_20  and  C_21
                            x       y       z     vdW  Elec       q    Type
                         _______ _______ _______ _____ _____    ______ ____

>  <TORSDO>
F 7

>  <SCORE>
-6.605

>  <RMSD_LB>
1.569

>  <RMSD_UB>
2.700

$$$$
CHEMBL3105775
 OpenBabel10172500423D

 25 26  0  0  0  0  0  0  0  0999 V2000
  135.2560  137.1130  147.4190 C   0  0  0  0  0  0  0  0  0  0  0  0
  136.0230  137.9990  147.0520 O   0  0  0  0  0  0  0  0  0  0  0  0
  134.3280  137.4170  148.4000 N   0  0  0  0  0  0  0  0  0  0  0  0
  134.4420  138.2890  148.8410 H   0  0  0  0  0  0  0  0  0  0  0  0
  135.5580  133.0830  145.8750 C   0  0  0  0  0  0  0  0  0  0  0  0
  136.2930  133.4980  146.9710 C   0  0  0  0  0  3  0  0  0  0  0  0
  136.1220  134.7880  147.4650 C   0  0  0  0  0  3  0  0  0  0  0  0
  135.3230  135.7460  146.8170 C   0  0  0  0  0  0  0  0  0  0  0  0
  134.5680  135.3270  145.7080 C   0  0  0  0  0  0  0  0  0  0  0  0
  134.6850  133.9910  145.2700 C   0  0  0  0  0  3  0  0  0  0  0  0
  135.9200  131.7350  143.9580 C   0  0  0  0  0  1  0  0  0  0  0  0
  135.5870  131.8250  145.3410 O   0  0  0  0  0  0  0  0  0  0  0  0
  133.6260  136.0180  144.9990 O   0  0  0  0  0  0  0  0  0  0  0  0
  134.0370  137.1480  144.2430 C   0  0  0  0  0  1  0  0  0  0  0  0
  133.2090  136.6210  148.8620 C   0  0  0  0  0  2  0  0  0  0  0  0
  133.5150  135.7440  150.0380 C   0  0  0  0  0  0  0  0  0  0  0  0
  133.4560  134.3460  149.9210 C   0  0  0  0  0  3  0  0  0  0  0  0
  133.6110  133.5370  151.0480 C   0  0  0  0  0  3  0  0  0  0  0  0
  133.8260  134.1300  152.2870 C   0  0  0  0  0  0  0  0  0  0  0  0
  133.8950  135.5150  152.4040 C   0  0  0  0  0  0  0  0  0  0  0  0
  133.7390  136.3250  151.2910 C   0  0  0  0  0  3  0  0  0  0  0  0
  133.9590  133.3900  153.4270 O   0  0  0  0  0  0  0  0  0  0  0  0
  134.6700  132.7860  153.5140 H   0  0  0  0  0  0  0  0  0  0  0  0
  134.0870  136.0970  153.6210 O   0  0  0  0  0  0  0  0  0  0  0  0
  134.8910  135.9620  154.0830 H   0  0  0  0  0  0  0  0  0  0  0  0
  1  3  1  0  0  0  0
  2  1  2  0  0  0  0
  3  4  1  0  0  0  0
  3 15  1  0  0  0  0
  5  6  1  0  0  0  0
  6  7  2  0  0  0  0
  8  1  1  0  0  0  0
  8  7  1  0  0  0  0
  9  8  2  0  0  0  0
 10  9  1  0  0  0  0
 10  5  2  0  0  0  0
 11 12  1  0  0  0  0
 12  5  1  0  0  0  0
 13  9  1  0  0  0  0
 14 13  1  0  0  0  0
 15 16  1  0  0  0  0
 16 21  1  0  0  0  0
 17 16  2  0  0  0  0
 17 18  1  0  0  0  0
 18 19  2  0  0  0  0
 19 20  1  0  0  0  0
 19 22  1  0  0  0  0
 20 24  1  0  0  0  0
 21 20  2  0  0  0  0
 22 23  1  0  0  0  0
 24 25  1  0  0  0  0
M  END
>  <MODEL>
5

>  <REMARK>
 VINA RESULT:    -6.309     12.071     13.701
 INTER + INTRA:          -9.630
 INTER:                  -8.669
 INTRA:                  -0.961
 UNBOUND:                -1.108
  Name = CHEMBL3105775
  9 active torsions:
  status: ('A' for Active; 'I' for Inactive)
    1  A    between atoms: C_1  and  O_2
    2  A    between atoms: O_2  and  C_3
    3  A    between atoms: C_6  and  C_7
    4  A    between atoms: N_9  and  C_10
    5  A    between atoms: C_10  and  C_11
    6  A    between atoms: C_14  and  O_15
    7  A    between atoms: C_16  and  O_17
    8  A    between atoms: C_19  and  O_20
    9  A    between atoms: O_20  and  C_21
                            x       y       z     vdW  Elec       q    Type
                         _______ _______ _______ _____ _____    ______ ____

>  <TORSDO>
F 7

>  <SCORE>
-6.309

>  <RMSD_LB>
12.071

>  <RMSD_UB>
13.701

$$$$
CHEMBL3105775
 OpenBabel10172500423D

 25 26  0  0  0  0  0  0  0  0999 V2000
  133.2460  135.2210  150.7870 C   0  0  0  0  0  0  0  0  0  0  0  0
  132.0730  135.5780  150.8460 O   0  0  0  0  0  0  0  0  0  0  0  0
  134.0610  135.4650  151.8780 N   0  0  0  0  0  0  0  0  0  0  0  0
  133.6760  136.0430  152.5770 H   0  0  0  0  0  0  0  0  0  0  0  0
  134.6860  133.0350  147.3410 C   0  0  0  0  0  0  0  0  0  0  0  0
  134.2590  132.3870  148.4860 C   0  0  0  0  0  3  0  0  0  0  0  0
  133.7530  133.1290  149.5490 C   0  0  0  0  0  3  0  0  0  0  0  0
  133.7750  134.5350  149.5670 C   0  0  0  0  0  0  0  0  0  0  0  0
  134.2010  135.1980  148.4040 C   0  0  0  0  0  0  0  0  0  0  0  0
  134.6300  134.4310  147.3010 C   0  0  0  0  0  3  0  0  0  0  0  0
  134.8960  133.0950  144.9800 C   0  0  0  0  0  1  0  0  0  0  0  0
  135.1370  132.4150  146.2100 O   0  0  0  0  0  0  0  0  0  0  0  0
  134.1870  136.5360  148.1230 O   0  0  0  0  0  0  0  0  0  0  0  0
  133.0400  137.0860  147.4890 C   0  0  0  0  0  1  0  0  0  0  0  0
  135.4040  134.9840  152.1300 C   0  0  0  0  0  2  0  0  0  0  0  0
  136.4900  135.9400  151.7390 C   0  0  0  0  0  0  0  0  0  0  0  0
  137.0910  135.8590  150.4730 C   0  0  0  0  0  3  0  0  0  0  0  0
  138.1900  136.6630  150.1630 C   0  0  0  0  0  3  0  0  0  0  0  0
  138.6800  137.5440  151.1200 C   0  0  0  0  0  0  0  0  0  0  0  0
  138.0790  137.6340  152.3710 C   0  0  0  0  0  0  0  0  0  0  0  0
  136.9920  136.8370  152.6890 C   0  0  0  0  0  3  0  0  0  0  0  0
  139.7680  138.3360  150.8810 O   0  0  0  0  0  0  0  0  0  0  0  0
  140.0940  138.4330  150.0080 H   0  0  0  0  0  0  0  0  0  0  0  0
  138.5720  138.4840  153.3160 O   0  0  0  0  0  0  0  0  0  0  0  0
  138.7930  139.3640  153.0830 H   0  0  0  0  0  0  0  0  0  0  0  0
  1  2  2  0  0  0  0
  1  3  1  0  0  0  0
  3 15  1  0  0  0  0
  3  4  1  0  0  0  0
  5  6  1  0  0  0  0
  6  7  2  0  0  0  0
  7  8  1  0  0  0  0
  8  1  1  0  0  0  0
  9  8  2  0  0  0  0
 10  5  2  0  0  0  0
 10  9  1  0  0  0  0
 11 12  1  0  0  0  0
 12  5  1  0  0  0  0
 13  9  1  0  0  0  0
 14 13  1  0  0  0  0
 16 15  1  0  0  0  0
 16 21  1  0  0  0  0
 17 16  2  0  0  0  0
 18 17  1  0  0  0  0
 18 19  2  0  0  0  0
 19 20  1  0  0  0  0
 20 21  2  0  0  0  0
 20 24  1  0  0  0  0
 22 19  1  0  0  0  0
 23 22  1  0  0  0  0
 25 24  1  0  0  0  0
M  END
>  <MODEL>
6

>  <REMARK>
 VINA RESULT:    -6.187      9.350     12.255
 INTER + INTRA:          -9.465
 INTER:                  -8.487
 INTRA:                  -0.977
 UNBOUND:                -1.108
  Name = CHEMBL3105775
  9 active torsions:
  status: ('A' for Active; 'I' for Inactive)
    1  A    between atoms: C_1  and  O_2
    2  A    between atoms: O_2  and  C_3
    3  A    between atoms: C_6  and  C_7
    4  A    between atoms: N_9  and  C_10
    5  A    between atoms: C_10  and  C_11
    6  A    between atoms: C_14  and  O_15
    7  A    between atoms: C_16  and  O_17
    8  A    between atoms: C_19  and  O_20
    9  A    between atoms: O_20  and  C_21
                            x       y       z     vdW  Elec       q    Type
                         _______ _______ _______ _____ _____    ______ ____

>  <TORSDO>
F 7

>  <SCORE>
-6.187

>  <RMSD_LB>
9.350

>  <RMSD_UB>
12.255

$$$$
CHEMBL3105775
 OpenBabel10172500423D

 25 26  0  0  0  0  0  0  0  0999 V2000
  145.7970  137.3460  154.0410 C   0  0  0  0  0  0  0  0  0  0  0  0
  146.3360  136.2620  154.2430 O   0  0  0  0  0  0  0  0  0  0  0  0
  144.4190  137.4200  154.1450 N   0  0  0  0  0  0  0  0  0  0  0  0
  143.9500  136.5590  154.2350 H   0  0  0  0  0  0  0  0  0  0  0  0
  148.2670  140.8070  153.2430 C   0  0  0  0  0  0  0  0  0  0  0  0
  148.1870  140.2470  154.5060 C   0  0  0  0  0  3  0  0  0  0  0  0
  147.4210  139.1020  154.7030 C   0  0  0  0  0  3  0  0  0  0  0  0
  146.6110  138.5510  153.6940 C   0  0  0  0  0  0  0  0  0  0  0  0
  146.6960  139.1110  152.4080 C   0  0  0  0  0  0  0  0  0  0  0  0
  147.5420  140.2200  152.2020 C   0  0  0  0  0  3  0  0  0  0  0  0
  149.1210  142.1960  151.5220 C   0  0  0  0  0  1  0  0  0  0  0  0
  149.0370  141.8870  152.9110 O   0  0  0  0  0  0  0  0  0  0  0  0
  146.1240  138.6800  151.2440 O   0  0  0  0  0  0  0  0  0  0  0  0
  145.5920  139.6470  150.3490 C   0  0  0  0  0  1  0  0  0  0  0  0
  143.5750  138.5970  154.1400 C   0  0  0  0  0  2  0  0  0  0  0  0
  142.1400  138.3310  153.8000 C   0  0  0  0  0  0  0  0  0  0  0  0
  141.7880  137.8050  152.5460 C   0  0  0  0  0  3  0  0  0  0  0  0
  140.4460  137.6830  152.1840 C   0  0  0  0  0  3  0  0  0  0  0  0
  139.4610  138.0880  153.0780 C   0  0  0  0  0  0  0  0  0  0  0  0
  139.8060  138.6000  154.3250 C   0  0  0  0  0  0  0  0  0  0  0  0
  141.1360  138.7280  154.6900 C   0  0  0  0  0  3  0  0  0  0  0  0
  138.1320  138.0160  152.7680 O   0  0  0  0  0  0  0  0  0  0  0  0
  137.7300  137.1840  152.6160 H   0  0  0  0  0  0  0  0  0  0  0  0
  138.8410  139.0150  155.1930 O   0  0  0  0  0  0  0  0  0  0  0  0
  139.0320  139.0810  156.1090 H   0  0  0  0  0  0  0  0  0  0  0  0
  1  3  1  0  0  0  0
  1  2  2  0  0  0  0
  3  4  1  0  0  0  0
  5  6  1  0  0  0  0
  6  7  2  0  0  0  0
  8  1  1  0  0  0  0
  8  7  1  0  0  0  0
  9  8  2  0  0  0  0
 10  9  1  0  0  0  0
 10  5  2  0  0  0  0
 11 12  1  0  0  0  0
 12  5  1  0  0  0  0
 13  9  1  0  0  0  0
 14 13  1  0  0  0  0
 15  3  1  0  0  0  0
 16 15  1  0  0  0  0
 16 21  1  0  0  0  0
 17 16  2  0  0  0  0
 18 17  1  0  0  0  0
 18 19  2  0  0  0  0
 19 20  1  0  0  0  0
 20 21  2  0  0  0  0
 20 24  1  0  0  0  0
 22 19  1  0  0  0  0
 23 22  1  0  0  0  0
 24 25  1  0  0  0  0
M  END
>  <MODEL>
7

>  <REMARK>
 VINA RESULT:    -6.056      2.615      6.763
 INTER + INTRA:          -9.288
 INTER:                  -8.710
 INTRA:                  -0.577
 UNBOUND:                -1.108
  Name = CHEMBL3105775
  9 active torsions:
  status: ('A' for Active; 'I' for Inactive)
    1  A    between atoms: C_1  and  O_2
    2  A    between atoms: O_2  and  C_3
    3  A    between atoms: C_6  and  C_7
    4  A    between atoms: N_9  and  C_10
    5  A    between atoms: C_10  and  C_11
    6  A    between atoms: C_14  and  O_15
    7  A    between atoms: C_16  and  O_17
    8  A    between atoms: C_19  and  O_20
    9  A    between atoms: O_20  and  C_21
                            x       y       z     vdW  Elec       q    Type
                         _______ _______ _______ _____ _____    ______ ____

>  <TORSDO>
F 7

>  <SCORE>
-6.056

>  <RMSD_LB>
2.615

>  <RMSD_UB>
6.763

$$$$
CHEMBL3105775
 OpenBabel10172500423D

 25 26  0  0  0  0  0  0  0  0999 V2000
  134.5110  134.1320  146.0050 C   0  0  0  0  0  0  0  0  0  0  0  0
  134.3460  134.5040  144.8470 O   0  0  0  0  0  0  0  0  0  0  0  0
  133.4120  133.6640  146.7050 N   0  0  0  0  0  0  0  0  0  0  0  0
  132.5400  133.7980  146.2680 H   0  0  0  0  0  0  0  0  0  0  0  0
  138.3660  134.4770  147.9390 C   0  0  0  0  0  0  0  0  0  0  0  0
  137.5030  135.5540  147.8430 C   0  0  0  0  0  3  0  0  0  0  0  0
  136.2500  135.3810  147.2600 C   0  0  0  0  0  3  0  0  0  0  0  0
  135.8650  134.1800  146.6380 C   0  0  0  0  0  0  0  0  0  0  0  0
  136.7350  133.0820  146.7400 C   0  0  0  0  0  0  0  0  0  0  0  0
  137.9660  133.2470  147.4100 C   0  0  0  0  0  3  0  0  0  0  0  0
  140.5230  135.4560  148.0420 C   0  0  0  0  0  1  0  0  0  0  0  0
  139.5900  134.5050  148.5470 O   0  0  0  0  0  0  0  0  0  0  0  0
  136.5360  131.7880  146.3470 O   0  0  0  0  0  0  0  0  0  0  0  0
  136.7520  131.4500  144.9850 C   0  0  0  0  0  1  0  0  0  0  0  0
  133.3750  133.0040  147.9930 C   0  0  0  0  0  2  0  0  0  0  0  0
  133.6170  133.9090  149.1620 C   0  0  0  0  0  0  0  0  0  0  0  0
  134.3450  133.4600  150.2760 C   0  0  0  0  0  3  0  0  0  0  0  0
  134.4540  134.2580  151.4160 C   0  0  0  0  0  3  0  0  0  0  0  0
  133.8350  135.5030  151.4360 C   0  0  0  0  0  0  0  0  0  0  0  0
  133.1220  135.9560  150.3300 C   0  0  0  0  0  0  0  0  0  0  0  0
  133.0060  135.1680  149.1970 C   0  0  0  0  0  3  0  0  0  0  0  0
  133.8870  136.3160  152.5330 O   0  0  0  0  0  0  0  0  0  0  0  0
  134.0350  135.9480  153.3820 H   0  0  0  0  0  0  0  0  0  0  0  0
  132.5000  137.1680  150.3570 O   0  0  0  0  0  0  0  0  0  0  0  0
  132.4020  137.6250  151.1700 H   0  0  0  0  0  0  0  0  0  0  0  0
  1  8  1  0  0  0  0
  1  3  1  0  0  0  0
  2  1  2  0  0  0  0
  3 15  1  0  0  0  0
  4  3  1  0  0  0  0
  5 12  1  0  0  0  0
  6  5  1  0  0  0  0
  7  6  2  0  0  0  0
  8  9  2  0  0  0  0
  8  7  1  0  0  0  0
  9 10  1  0  0  0  0
 10  5  2  0  0  0  0
 11 12  1  0  0  0  0
 13  9  1  0  0  0  0
 14 13  1  0  0  0  0
 15 16  1  0  0  0  0
 16 21  2  0  0  0  0
 16 17  1  0  0  0  0
 17 18  2  0  0  0  0
 18 19  1  0  0  0  0
 19 22  1  0  0  0  0
 20 24  1  0  0  0  0
 20 19  2  0  0  0  0
 21 20  1  0  0  0  0
 22 23  1  0  0  0  0
 24 25  1  0  0  0  0
M  END
>  <MODEL>
8

>  <REMARK>
 VINA RESULT:    -5.993     10.185     13.253
 INTER + INTRA:          -9.203
 INTER:                  -8.140
 INTRA:                  -1.063
 UNBOUND:                -1.108
  Name = CHEMBL3105775
  9 active torsions:
  status: ('A' for Active; 'I' for Inactive)
    1  A    between atoms: C_1  and  O_2
    2  A    between atoms: O_2  and  C_3
    3  A    between atoms: C_6  and  C_7
    4  A    between atoms: N_9  and  C_10
    5  A    between atoms: C_10  and  C_11
    6  A    between atoms: C_14  and  O_15
    7  A    between atoms: C_16  and  O_17
    8  A    between atoms: C_19  and  O_20
    9  A    between atoms: O_20  and  C_21
                            x       y       z     vdW  Elec       q    Type
                         _______ _______ _______ _____ _____    ______ ____

>  <TORSDO>
F 7

>  <SCORE>
-5.993

>  <RMSD_LB>
10.185

>  <RMSD_UB>
13.253

$$$$
CHEMBL3105775
 OpenBabel10172500423D

 25 26  0  0  0  0  0  0  0  0999 V2000
  145.0410  139.0700  149.1010 C   0  0  0  0  0  0  0  0  0  0  0  0
  143.8620  138.7580  148.9590 O   0  0  0  0  0  0  0  0  0  0  0  0
  145.3580  140.4160  149.1640 N   0  0  0  0  0  0  0  0  0  0  0  0
  144.6270  141.0380  148.9450 H   0  0  0  0  0  0  0  0  0  0  0  0
  148.0170  135.9720  149.6130 C   0  0  0  0  0  0  0  0  0  0  0  0
  147.2320  136.4060  150.6660 C   0  0  0  0  0  3  0  0  0  0  0  0
  146.2510  137.3670  150.4420 C   0  0  0  0  0  3  0  0  0  0  0  0
  146.1010  138.0220  149.2060 C   0  0  0  0  0  0  0  0  0  0  0  0
  146.8910  137.5780  148.1310 C   0  0  0  0  0  0  0  0  0  0  0  0
  147.8230  136.5430  148.3520 C   0  0  0  0  0  3  0  0  0  0  0  0
  149.9850  135.0160  148.6990 C   0  0  0  0  0  1  0  0  0  0  0  0
  148.9640  134.9890  149.6930 O   0  0  0  0  0  0  0  0  0  0  0  0
  146.8400  137.9500  146.8170 O   0  0  0  0  0  0  0  0  0  0  0  0
  147.7230  138.9650  146.3630 C   0  0  0  0  0  1  0  0  0  0  0  0
  146.6230  141.0300  149.5100 C   0  0  0  0  0  2  0  0  0  0  0  0
  146.8470  141.2070  150.9810 C   0  0  0  0  0  0  0  0  0  0  0  0
  146.0070  142.0420  151.7360 C   0  0  0  0  0  3  0  0  0  0  0  0
  146.2970  142.3090  153.0750 C   0  0  0  0  0  3  0  0  0  0  0  0
  147.4260  141.7370  153.6530 C   0  0  0  0  0  0  0  0  0  0  0  0
  148.2540  140.9020  152.9100 C   0  0  0  0  0  0  0  0  0  0  0  0
  147.9750  140.6360  151.5800 C   0  0  0  0  0  3  0  0  0  0  0  0
  147.7730  141.9830  154.9510 O   0  0  0  0  0  0  0  0  0  0  0  0
  147.1500  142.3630  155.5390 H   0  0  0  0  0  0  0  0  0  0  0  0
  149.3700  140.3580  153.4720 O   0  0  0  0  0  0  0  0  0  0  0  0
  150.0930  140.9080  153.7010 H   0  0  0  0  0  0  0  0  0  0  0  0
  1  3  1  0  0  0  0
  1  8  1  0  0  0  0
  2  1  2  0  0  0  0
  3 15  1  0  0  0  0
  4  3  1  0  0  0  0
  5 12  1  0  0  0  0
  5  6  1  0  0  0  0
  7  6  2  0  0  0  0
  8  7  1  0  0  0  0
  9 10  1  0  0  0  0
  9  8  2  0  0  0  0
 10  5  2  0  0  0  0
 11 12  1  0  0  0  0
 13  9  1  0  0  0  0
 14 13  1  0  0  0  0
 15 16  1  0  0  0  0
 16 21  2  0  0  0  0
 16 17  1  0  0  0  0
 17 18  2  0  0  0  0
 18 19  1  0  0  0  0
 19 22  1  0  0  0  0
 20 24  1  0  0  0  0
 20 19  2  0  0  0  0
 21 20  1  0  0  0  0
 22 23  1  0  0  0  0
 24 25  1  0  0  0  0
M  END
>  <MODEL>
9

>  <REMARK>
 VINA RESULT:    -5.885      2.758      4.553
 INTER + INTRA:          -9.056
 INTER:                  -7.949
 INTRA:                  -1.108
 UNBOUND:                -1.108
  Name = CHEMBL3105775
  9 active torsions:
  status: ('A' for Active; 'I' for Inactive)
    1  A    between atoms: C_1  and  O_2
    2  A    between atoms: O_2  and  C_3
    3  A    between atoms: C_6  and  C_7
    4  A    between atoms: N_9  and  C_10
    5  A    between atoms: C_10  and  C_11
    6  A    between atoms: C_14  and  O_15
    7  A    between atoms: C_16  and  O_17
    8  A    between atoms: C_19  and  O_20
    9  A    between atoms: O_20  and  C_21
                            x       y       z     vdW  Elec       q    Type
                         _______ _______ _______ _____ _____    ______ ____

>  <TORSDO>
F 7

>  <SCORE>
-5.885

>  <RMSD_LB>
2.758

>  <RMSD_UB>
4.553

$$$$
