CHEMBL5274645
 OpenBabel10172500293D

 24 25  0  0  0  0  0  0  0  0999 V2000
  134.6140  134.5300  151.8380 C   0  0  0  0  0  3  0  0  0  0  0  0
  133.6910  134.9020  152.7370 C   0  0  0  0  0  3  0  0  0  0  0  0
  133.8200  134.9330  148.1480 C   0  0  0  0  0  0  0  0  0  0  0  0
  134.1180  135.2400  149.4800 C   0  0  0  0  0  3  0  0  0  0  0  0
  134.3110  134.2270  150.4320 C   0  0  0  0  0  0  0  0  0  0  0  0
  134.1600  132.8910  150.0410 C   0  0  0  0  0  3  0  0  0  0  0  0
  133.8540  132.5690  148.7170 C   0  0  0  0  0  3  0  0  0  0  0  0
  133.6900  133.5880  147.7800 C   0  0  0  0  0  0  0  0  0  0  0  0
  132.4750  136.6780  147.2370 C   0  0  0  0  0  1  0  0  0  0  0  0
  133.6370  135.8640  147.1570 O   0  0  0  0  0  0  0  0  0  0  0  0
  133.3930  133.2770  146.4810 O   0  0  0  0  0  0  0  0  0  0  0  0
  132.8640  133.8560  145.9690 H   0  0  0  0  0  0  0  0  0  0  0  0
  134.0800  135.1990  154.1440 C   0  0  0  0  0  0  0  0  0  0  0  0
  133.2420  135.2110  155.0450 O   0  0  0  0  0  0  0  0  0  0  0  0
  135.5420  135.5210  154.3810 C   0  0  0  0  0  2  0  0  0  0  0  0
  135.7730  136.0580  155.7900 C   0  0  0  0  0  2  0  0  0  0  0  0
  137.2380  135.9130  156.2050 C   0  0  0  0  0  2  0  0  0  0  0  0
  137.8660  137.2810  156.4740 C   0  0  0  0  0  2  0  0  0  0  0  0
  138.9130  137.6430  155.4520 C   0  0  0  0  0  0  0  0  0  0  0  0
  138.5640  137.8120  154.1060 C   0  0  0  0  0  3  0  0  0  0  0  0
  139.5270  138.1930  153.1690 C   0  0  0  0  0  3  0  0  0  0  0  0
  140.8470  138.3980  153.5670 C   0  0  0  0  0  3  0  0  0  0  0  0
  141.2090  138.2050  154.8990 C   0  0  0  0  0  3  0  0  0  0  0  0
  140.2480  137.8220  155.8370 C   0  0  0  0  0  3  0  0  0  0  0  0
  1  2  2  0  0  0  0
  2 13  1  0  0  0  0
  3  4  1  0  0  0  0
  4  5  2  0  0  0  0
  5  1  1  0  0  0  0
  6  5  1  0  0  0  0
  7  6  2  0  0  0  0
  8  3  2  0  0  0  0
  8  7  1  0  0  0  0
 10  9  1  0  0  0  0
 10  3  1  0  0  0  0
 11  8  1  0  0  0  0
 12 11  1  0  0  0  0
 13 15  1  0  0  0  0
 13 14  2  0  0  0  0
 15 16  1  0  0  0  0
 16 17  1  0  0  0  0
 17 18  1  0  0  0  0
 19 24  1  0  0  0  0
 19 18  1  0  0  0  0
 20 19  2  0  0  0  0
 21 22  2  0  0  0  0
 21 20  1  0  0  0  0
 22 23  1  0  0  0  0
 23 24  2  0  0  0  0
M  END
>  <MODEL>
1

>  <REMARK>
 VINA RESULT:    -6.451      0.000      0.000
 INTER + INTRA:         -11.754
 INTER:                 -10.947
 INTRA:                  -0.807
 UNBOUND:                -2.097
  Name = CHEMBL5274645
  10 active torsions:
  status: ('A' for Active; 'I' for Inactive)
    1  A    between atoms: C_1  and  O_2
    2  A    between atoms: O_2  and  C_3
    3  A    between atoms: C_5  and  C_6
    4  A    between atoms: C_7  and  C_8
    5  A    between atoms: C_8  and  C_10
    6  A    between atoms: C_10  and  C_11
    7  A    between atoms: C_11  and  C_12
    8  A    between atoms: C_12  and  C_13
    9  A    between atoms: C_13  and  C_14
   10  A    between atoms: C_22  and  O_23
                            x       y       z     vdW  Elec       q    Type
                         _______ _______ _______ _____ _____    ______ ____

>  <TORSDO>
F 9

>  <SCORE>
-6.451

>  <RMSD_LB>
0.000

>  <RMSD_UB>
0.000

$$$$
CHEMBL5274645
 OpenBabel10172500293D

 24 25  0  0  0  0  0  0  0  0999 V2000
  133.8500  134.2540  151.7290 C   0  0  0  0  0  3  0  0  0  0  0  0
  134.9880  134.3410  152.4350 C   0  0  0  0  0  3  0  0  0  0  0  0
  133.6010  135.0780  148.0320 C   0  0  0  0  0  0  0  0  0  0  0  0
  133.6540  135.2280  149.4220 C   0  0  0  0  0  3  0  0  0  0  0  0
  133.8040  134.1170  150.2670 C   0  0  0  0  0  0  0  0  0  0  0  0
  133.8600  132.8370  149.7010 C   0  0  0  0  0  3  0  0  0  0  0  0
  133.8000  132.6700  148.3150 C   0  0  0  0  0  3  0  0  0  0  0  0
  133.6750  133.7880  147.4910 C   0  0  0  0  0  0  0  0  0  0  0  0
  132.3420  136.9580  147.2840 C   0  0  0  0  0  1  0  0  0  0  0  0
  133.4750  136.1140  147.1420 O   0  0  0  0  0  0  0  0  0  0  0  0
  133.6180  133.6290  146.1330 O   0  0  0  0  0  0  0  0  0  0  0  0
  132.8030  133.7340  145.6820 H   0  0  0  0  0  0  0  0  0  0  0  0
  134.9500  134.4720  153.9190 C   0  0  0  0  0  0  0  0  0  0  0  0
  133.9700  134.1040  154.5630 O   0  0  0  0  0  0  0  0  0  0  0  0
  136.1600  135.1190  154.5640 C   0  0  0  0  0  2  0  0  0  0  0  0
  135.9150  136.5980  154.8480 C   0  0  0  0  0  2  0  0  0  0  0  0
  137.0860  137.2150  155.6140 C   0  0  0  0  0  2  0  0  0  0  0  0
  137.6700  136.2180  156.6150 C   0  0  0  0  0  2  0  0  0  0  0  0
  136.9290  136.2200  157.9270 C   0  0  0  0  0  0  0  0  0  0  0  0
  136.7000  137.4210  158.6120 C   0  0  0  0  0  3  0  0  0  0  0  0
  135.9720  137.4260  159.8040 C   0  0  0  0  0  3  0  0  0  0  0  0
  135.4760  136.2330  160.3260 C   0  0  0  0  0  3  0  0  0  0  0  0
  135.7230  135.0300  159.6660 C   0  0  0  0  0  3  0  0  0  0  0  0
  136.4520  135.0220  158.4760 C   0  0  0  0  0  3  0  0  0  0  0  0
  1  2  2  0  0  0  0
  2 13  1  0  0  0  0
  3  4  1  0  0  0  0
  4  5  2  0  0  0  0
  5  1  1  0  0  0  0
  6  5  1  0  0  0  0
  7  6  2  0  0  0  0
  8  3  2  0  0  0  0
  8  7  1  0  0  0  0
 10  9  1  0  0  0  0
 10  3  1  0  0  0  0
 11  8  1  0  0  0  0
 12 11  1  0  0  0  0
 13 14  2  0  0  0  0
 13 15  1  0  0  0  0
 15 16  1  0  0  0  0
 16 17  1  0  0  0  0
 17 18  1  0  0  0  0
 18 19  1  0  0  0  0
 19 24  2  0  0  0  0
 19 20  1  0  0  0  0
 20 21  2  0  0  0  0
 21 22  1  0  0  0  0
 23 22  2  0  0  0  0
 24 23  1  0  0  0  0
M  END
>  <MODEL>
2

>  <REMARK>
 VINA RESULT:    -6.282      1.861      3.472
 INTER + INTRA:         -11.500
 INTER:                 -10.694
 INTRA:                  -0.807
 UNBOUND:                -2.097
  Name = CHEMBL5274645
  10 active torsions:
  status: ('A' for Active; 'I' for Inactive)
    1  A    between atoms: C_1  and  O_2
    2  A    between atoms: O_2  and  C_3
    3  A    between atoms: C_5  and  C_6
    4  A    between atoms: C_7  and  C_8
    5  A    between atoms: C_8  and  C_10
    6  A    between atoms: C_10  and  C_11
    7  A    between atoms: C_11  and  C_12
    8  A    between atoms: C_12  and  C_13
    9  A    between atoms: C_13  and  C_14
   10  A    between atoms: C_22  and  O_23
                            x       y       z     vdW  Elec       q    Type
                         _______ _______ _______ _____ _____    ______ ____

>  <TORSDO>
F 9

>  <SCORE>
-6.282

>  <RMSD_LB>
1.861

>  <RMSD_UB>
3.472

$$$$
CHEMBL5274645
 OpenBabel10172500293D

 24 25  0  0  0  0  0  0  0  0999 V2000
  139.2430  138.3650  154.1670 C   0  0  0  0  0  3  0  0  0  0  0  0
  138.4550  137.4510  154.7540 C   0  0  0  0  0  3  0  0  0  0  0  0
  141.6190  137.3470  151.3870 C   0  0  0  0  0  0  0  0  0  0  0  0
  140.4430  137.6700  152.0720 C   0  0  0  0  0  3  0  0  0  0  0  0
  140.4690  138.0330  153.4280 C   0  0  0  0  0  0  0  0  0  0  0  0
  141.6940  138.0300  154.1070 C   0  0  0  0  0  3  0  0  0  0  0  0
  142.8760  137.7010  153.4390 C   0  0  0  0  0  3  0  0  0  0  0  0
  142.8320  137.3660  152.0860 C   0  0  0  0  0  0  0  0  0  0  0  0
  140.4760  136.5400  149.4570 C   0  0  0  0  0  1  0  0  0  0  0  0
  141.6760  137.0020  150.0610 O   0  0  0  0  0  0  0  0  0  0  0  0
  143.9880  137.0470  151.4270 O   0  0  0  0  0  0  0  0  0  0  0  0
  144.7330  137.6120  151.4850 H   0  0  0  0  0  0  0  0  0  0  0  0
  137.2240  137.8690  155.4810 C   0  0  0  0  0  0  0  0  0  0  0  0
  136.9570  139.0580  155.6470 O   0  0  0  0  0  0  0  0  0  0  0  0
  136.3590  136.7510  156.0310 C   0  0  0  0  0  2  0  0  0  0  0  0
  136.2280  135.6060  155.0310 C   0  0  0  0  0  2  0  0  0  0  0  0
  135.2640  135.9660  153.9000 C   0  0  0  0  0  2  0  0  0  0  0  0
  135.8080  135.4970  152.5500 C   0  0  0  0  0  2  0  0  0  0  0  0
  134.7390  134.8860  151.6810 C   0  0  0  0  0  0  0  0  0  0  0  0
  135.0550  133.8610  150.7790 C   0  0  0  0  0  3  0  0  0  0  0  0
  134.0550  133.2640  150.0090 C   0  0  0  0  0  3  0  0  0  0  0  0
  132.7330  133.6930  150.1250 C   0  0  0  0  0  3  0  0  0  0  0  0
  132.4140  134.7320  150.9990 C   0  0  0  0  0  3  0  0  0  0  0  0
  133.4130  135.3310  151.7680 C   0  0  0  0  0  3  0  0  0  0  0  0
  1  2  2  0  0  0  0
  2 13  1  0  0  0  0
  3  4  2  0  0  0  0
  3  8  1  0  0  0  0
  4  5  1  0  0  0  0
  5  6  2  0  0  0  0
  5  1  1  0  0  0  0
  7  6  1  0  0  0  0
  8  7  2  0  0  0  0
  9 10  1  0  0  0  0
 10  3  1  0  0  0  0
 11 12  1  0  0  0  0
 11  8  1  0  0  0  0
 13 14  2  0  0  0  0
 13 15  1  0  0  0  0
 16 15  1  0  0  0  0
 17 16  1  0  0  0  0
 18 17  1  0  0  0  0
 19 24  1  0  0  0  0
 19 18  1  0  0  0  0
 20 19  2  0  0  0  0
 21 22  2  0  0  0  0
 21 20  1  0  0  0  0
 22 23  1  0  0  0  0
 23 24  2  0  0  0  0
M  END
>  <MODEL>
3

>  <REMARK>
 VINA RESULT:    -6.254      3.530      7.825
 INTER + INTRA:         -11.458
 INTER:                 -10.539
 INTRA:                  -0.920
 UNBOUND:                -2.097
  Name = CHEMBL5274645
  10 active torsions:
  status: ('A' for Active; 'I' for Inactive)
    1  A    between atoms: C_1  and  O_2
    2  A    between atoms: O_2  and  C_3
    3  A    between atoms: C_5  and  C_6
    4  A    between atoms: C_7  and  C_8
    5  A    between atoms: C_8  and  C_10
    6  A    between atoms: C_10  and  C_11
    7  A    between atoms: C_11  and  C_12
    8  A    between atoms: C_12  and  C_13
    9  A    between atoms: C_13  and  C_14
   10  A    between atoms: C_22  and  O_23
                            x       y       z     vdW  Elec       q    Type
                         _______ _______ _______ _____ _____    ______ ____

>  <TORSDO>
F 9

>  <SCORE>
-6.254

>  <RMSD_LB>
3.530

>  <RMSD_UB>
7.825

$$$$
CHEMBL5274645
 OpenBabel10172500293D

 24 25  0  0  0  0  0  0  0  0999 V2000
  134.7920  134.0900  151.5530 C   0  0  0  0  0  3  0  0  0  0  0  0
  133.8800  134.2230  152.5280 C   0  0  0  0  0  3  0  0  0  0  0  0
  134.0030  134.9980  147.9530 C   0  0  0  0  0  0  0  0  0  0  0  0
  134.3350  135.1170  149.3070 C   0  0  0  0  0  3  0  0  0  0  0  0
  134.4550  133.9840  150.1270 C   0  0  0  0  0  0  0  0  0  0  0  0
  134.1950  132.7210  149.5810 C   0  0  0  0  0  3  0  0  0  0  0  0
  133.8530  132.5870  148.2330 C   0  0  0  0  0  3  0  0  0  0  0  0
  133.7640  133.7220  147.4290 C   0  0  0  0  0  0  0  0  0  0  0  0
  132.8070  136.9530  147.2970 C   0  0  0  0  0  1  0  0  0  0  0  0
  133.8870  136.0540  147.0850 O   0  0  0  0  0  0  0  0  0  0  0  0
  133.4320  133.5950  146.1070 O   0  0  0  0  0  0  0  0  0  0  0  0
  133.9100  133.0050  145.5580 H   0  0  0  0  0  0  0  0  0  0  0  0
  134.3040  134.3300  153.9520 C   0  0  0  0  0  0  0  0  0  0  0  0
  134.2690  133.3540  154.7000 O   0  0  0  0  0  0  0  0  0  0  0  0
  134.7320  135.7060  154.4220 C   0  0  0  0  0  2  0  0  0  0  0  0
  136.1520  135.6870  154.9810 C   0  0  0  0  0  2  0  0  0  0  0  0
  137.0550  136.6680  154.2330 C   0  0  0  0  0  2  0  0  0  0  0  0
  136.8870  136.5190  152.7210 C   0  0  0  0  0  2  0  0  0  0  0  0
  137.8230  137.4130  151.9480 C   0  0  0  0  0  0  0  0  0  0  0  0
  138.9470  137.9730  152.5690 C   0  0  0  0  0  3  0  0  0  0  0  0
  139.8380  138.7620  151.8390 C   0  0  0  0  0  3  0  0  0  0  0  0
  139.6070  139.0070  150.4860 C   0  0  0  0  0  3  0  0  0  0  0  0
  138.4770  138.4770  149.8660 C   0  0  0  0  0  3  0  0  0  0  0  0
  137.5840  137.6900  150.5950 C   0  0  0  0  0  3  0  0  0  0  0  0
  1  2  2  0  0  0  0
  2 13  1  0  0  0  0
  3  4  1  0  0  0  0
  4  5  2  0  0  0  0
  5  1  1  0  0  0  0
  6  5  1  0  0  0  0
  7  6  2  0  0  0  0
  8  3  2  0  0  0  0
  8  7  1  0  0  0  0
 10  9  1  0  0  0  0
 10  3  1  0  0  0  0
 11  8  1  0  0  0  0
 12 11  1  0  0  0  0
 13 15  1  0  0  0  0
 13 14  2  0  0  0  0
 15 16  1  0  0  0  0
 17 16  1  0  0  0  0
 18 17  1  0  0  0  0
 19 20  1  0  0  0  0
 19 18  1  0  0  0  0
 21 20  2  0  0  0  0
 22 21  1  0  0  0  0
 23 22  2  0  0  0  0
 23 24  1  0  0  0  0
 24 19  2  0  0  0  0
M  END
>  <MODEL>
4

>  <REMARK>
 VINA RESULT:    -6.171      1.574      2.347
 INTER + INTRA:         -11.334
 INTER:                 -10.174
 INTRA:                  -1.160
 UNBOUND:                -2.097
  Name = CHEMBL5274645
  10 active torsions:
  status: ('A' for Active; 'I' for Inactive)
    1  A    between atoms: C_1  and  O_2
    2  A    between atoms: O_2  and  C_3
    3  A    between atoms: C_5  and  C_6
    4  A    between atoms: C_7  and  C_8
    5  A    between atoms: C_8  and  C_10
    6  A    between atoms: C_10  and  C_11
    7  A    between atoms: C_11  and  C_12
    8  A    between atoms: C_12  and  C_13
    9  A    between atoms: C_13  and  C_14
   10  A    between atoms: C_22  and  O_23
                            x       y       z     vdW  Elec       q    Type
                         _______ _______ _______ _____ _____    ______ ____

>  <TORSDO>
F 9

>  <SCORE>
-6.171

>  <RMSD_LB>
1.574

>  <RMSD_UB>
2.347

$$$$
CHEMBL5274645
 OpenBabel10172500293D

 24 25  0  0  0  0  0  0  0  0999 V2000
  139.8000  137.7950  150.9710 C   0  0  0  0  0  3  0  0  0  0  0  0
  140.4060  137.0470  150.0370 C   0  0  0  0  0  3  0  0  0  0  0  0
  139.8020  138.2390  154.7410 C   0  0  0  0  0  0  0  0  0  0  0  0
  139.3570  138.1520  153.4180 C   0  0  0  0  0  3  0  0  0  0  0  0
  140.2480  137.8810  152.3680 C   0  0  0  0  0  0  0  0  0  0  0  0
  141.6110  137.7380  152.6560 C   0  0  0  0  0  3  0  0  0  0  0  0
  142.0730  137.8310  153.9710 C   0  0  0  0  0  3  0  0  0  0  0  0
  141.1680  138.0770  155.0030 C   0  0  0  0  0  0  0  0  0  0  0  0
  137.6150  138.1560  155.6860 C   0  0  0  0  0  1  0  0  0  0  0  0
  138.9910  138.4820  155.8200 O   0  0  0  0  0  0  0  0  0  0  0  0
  141.6160  138.1670  156.2930 O   0  0  0  0  0  0  0  0  0  0  0  0
  141.8890  138.9940  156.6390 H   0  0  0  0  0  0  0  0  0  0  0  0
  139.8920  137.0190  148.6390 C   0  0  0  0  0  0  0  0  0  0  0  0
  139.3310  137.9980  148.1500 O   0  0  0  0  0  0  0  0  0  0  0  0
  140.0650  135.7140  147.8880 C   0  0  0  0  0  2  0  0  0  0  0  0
  138.7200  135.0530  147.6030 C   0  0  0  0  0  2  0  0  0  0  0  0
  138.1160  134.4550  148.8750 C   0  0  0  0  0  2  0  0  0  0  0  0
  136.6820  134.9460  149.0800 C   0  0  0  0  0  2  0  0  0  0  0  0
  136.3170  135.0600  150.5380 C   0  0  0  0  0  0  0  0  0  0  0  0
  136.7550  136.1520  151.2970 C   0  0  0  0  0  3  0  0  0  0  0  0
  136.3770  136.2800  152.6350 C   0  0  0  0  0  3  0  0  0  0  0  0
  135.5660  135.3120  153.2280 C   0  0  0  0  0  3  0  0  0  0  0  0
  135.1480  134.2080  152.4880 C   0  0  0  0  0  3  0  0  0  0  0  0
  135.5280  134.0770  151.1510 C   0  0  0  0  0  3  0  0  0  0  0  0
  1  5  1  0  0  0  0
  2  1  2  0  0  0  0
  3  8  1  0  0  0  0
  3 10  1  0  0  0  0
  4  3  2  0  0  0  0
  5  6  2  0  0  0  0
  5  4  1  0  0  0  0
  6  7  1  0  0  0  0
  7  8  2  0  0  0  0
  8 11  1  0  0  0  0
  9 10  1  0  0  0  0
 11 12  1  0  0  0  0
 13  2  1  0  0  0  0
 14 13  2  0  0  0  0
 15 13  1  0  0  0  0
 16 15  1  0  0  0  0
 16 17  1  0  0  0  0
 17 18  1  0  0  0  0
 18 19  1  0  0  0  0
 19 24  2  0  0  0  0
 19 20  1  0  0  0  0
 20 21  2  0  0  0  0
 21 22  1  0  0  0  0
 23 22  2  0  0  0  0
 24 23  1  0  0  0  0
M  END
>  <MODEL>
5

>  <REMARK>
 VINA RESULT:    -6.049      3.685      8.499
 INTER + INTRA:         -11.151
 INTER:                  -9.595
 INTRA:                  -1.556
 UNBOUND:                -2.097
  Name = CHEMBL5274645
  10 active torsions:
  status: ('A' for Active; 'I' for Inactive)
    1  A    between atoms: C_1  and  O_2
    2  A    between atoms: O_2  and  C_3
    3  A    between atoms: C_5  and  C_6
    4  A    between atoms: C_7  and  C_8
    5  A    between atoms: C_8  and  C_10
    6  A    between atoms: C_10  and  C_11
    7  A    between atoms: C_11  and  C_12
    8  A    between atoms: C_12  and  C_13
    9  A    between atoms: C_13  and  C_14
   10  A    between atoms: C_22  and  O_23
                            x       y       z     vdW  Elec       q    Type
                         _______ _______ _______ _____ _____    ______ ____

>  <TORSDO>
F 9

>  <SCORE>
-6.049

>  <RMSD_LB>
3.685

>  <RMSD_UB>
8.499

$$$$
CHEMBL5274645
 OpenBabel10172500293D

 24 25  0  0  0  0  0  0  0  0999 V2000
  137.7520  136.9030  150.7300 C   0  0  0  0  0  3  0  0  0  0  0  0
  138.0810  138.1500  150.3640 C   0  0  0  0  0  3  0  0  0  0  0  0
  134.5570  135.5970  152.3090 C   0  0  0  0  0  0  0  0  0  0  0  0
  135.8740  136.0430  152.1600 C   0  0  0  0  0  3  0  0  0  0  0  0
  136.3680  136.4420  150.9080 C   0  0  0  0  0  0  0  0  0  0  0  0
  135.5320  136.3480  149.7890 C   0  0  0  0  0  3  0  0  0  0  0  0
  134.2170  135.8960  149.9200 C   0  0  0  0  0  3  0  0  0  0  0  0
  133.7370  135.5280  151.1760 C   0  0  0  0  0  0  0  0  0  0  0  0
  134.4780  134.0070  154.0840 C   0  0  0  0  0  1  0  0  0  0  0  0
  133.9970  135.2100  153.5010 O   0  0  0  0  0  0  0  0  0  0  0  0
  132.4490  135.0870  151.3100 O   0  0  0  0  0  0  0  0  0  0  0  0
  132.2520  134.1750  151.2200 H   0  0  0  0  0  0  0  0  0  0  0  0
  139.5100  138.5390  150.1990 C   0  0  0  0  0  0  0  0  0  0  0  0
  139.8210  139.6600  149.7990 O   0  0  0  0  0  0  0  0  0  0  0  0
  140.5360  137.4660  150.5090 C   0  0  0  0  0  2  0  0  0  0  0  0
  141.7640  138.0530  151.1980 C   0  0  0  0  0  2  0  0  0  0  0  0
  141.8800  137.5560  152.6400 C   0  0  0  0  0  2  0  0  0  0  0  0
  141.5360  138.6710  153.6290 C   0  0  0  0  0  2  0  0  0  0  0  0
  140.3350  138.3360  154.4770 C   0  0  0  0  0  0  0  0  0  0  0  0
  139.0480  138.3540  153.9250 C   0  0  0  0  0  3  0  0  0  0  0  0
  137.9420  137.9980  154.6990 C   0  0  0  0  0  3  0  0  0  0  0  0
  138.1120  137.6310  156.0330 C   0  0  0  0  0  3  0  0  0  0  0  0
  139.3850  137.6370  156.5990 C   0  0  0  0  0  3  0  0  0  0  0  0
  140.4920  137.9940  155.8270 C   0  0  0  0  0  3  0  0  0  0  0  0
  1  5  1  0  0  0  0
  2  1  2  0  0  0  0
  3 10  1  0  0  0  0
  4  3  1  0  0  0  0
  5  4  2  0  0  0  0
  6  7  2  0  0  0  0
  6  5  1  0  0  0  0
  7  8  1  0  0  0  0
  8 11  1  0  0  0  0
  8  3  2  0  0  0  0
 10  9  1  0  0  0  0
 12 11  1  0  0  0  0
 13  2  1  0  0  0  0
 13 15  1  0  0  0  0
 14 13  2  0  0  0  0
 15 16  1  0  0  0  0
 16 17  1  0  0  0  0
 17 18  1  0  0  0  0
 18 19  1  0  0  0  0
 19 24  1  0  0  0  0
 20 19  2  0  0  0  0
 20 21  1  0  0  0  0
 21 22  2  0  0  0  0
 22 23  1  0  0  0  0
 24 23  2  0  0  0  0
M  END
>  <MODEL>
6

>  <REMARK>
 VINA RESULT:    -5.853      2.554      5.110
 INTER + INTRA:         -10.859
 INTER:                  -9.214
 INTRA:                  -1.644
 UNBOUND:                -2.097
  Name = CHEMBL5274645
  10 active torsions:
  status: ('A' for Active; 'I' for Inactive)
    1  A    between atoms: C_1  and  O_2
    2  A    between atoms: O_2  and  C_3
    3  A    between atoms: C_5  and  C_6
    4  A    between atoms: C_7  and  C_8
    5  A    between atoms: C_8  and  C_10
    6  A    between atoms: C_10  and  C_11
    7  A    between atoms: C_11  and  C_12
    8  A    between atoms: C_12  and  C_13
    9  A    between atoms: C_13  and  C_14
   10  A    between atoms: C_22  and  O_23
                            x       y       z     vdW  Elec       q    Type
                         _______ _______ _______ _____ _____    ______ ____

>  <TORSDO>
F 9

>  <SCORE>
-5.853

>  <RMSD_LB>
2.554

>  <RMSD_UB>
5.110

$$$$
CHEMBL5274645
 OpenBabel10172500293D

 24 25  0  0  0  0  0  0  0  0999 V2000
  139.9630  137.3740  150.6610 C   0  0  0  0  0  3  0  0  0  0  0  0
  140.7190  136.7380  149.7530 C   0  0  0  0  0  3  0  0  0  0  0  0
  139.9900  138.4920  154.2880 C   0  0  0  0  0  0  0  0  0  0  0  0
  139.5370  138.1740  153.0030 C   0  0  0  0  0  3  0  0  0  0  0  0
  140.4190  137.7020  152.0190 C   0  0  0  0  0  0  0  0  0  0  0  0
  141.7810  137.5910  152.3260 C   0  0  0  0  0  3  0  0  0  0  0  0
  142.2500  137.9130  153.6010 C   0  0  0  0  0  3  0  0  0  0  0  0
  141.3540  138.3570  154.5730 C   0  0  0  0  0  0  0  0  0  0  0  0
  137.9830  138.2260  155.5470 C   0  0  0  0  0  1  0  0  0  0  0  0
  139.1880  138.9390  155.3070 O   0  0  0  0  0  0  0  0  0  0  0  0
  141.8090  138.6710  155.8250 O   0  0  0  0  0  0  0  0  0  0  0  0
  142.0980  139.5420  156.0150 H   0  0  0  0  0  0  0  0  0  0  0  0
  140.1850  136.4460  148.3930 C   0  0  0  0  0  0  0  0  0  0  0  0
  140.2930  137.2640  147.4810 O   0  0  0  0  0  0  0  0  0  0  0  0
  139.4740  135.1180  148.2240 C   0  0  0  0  0  2  0  0  0  0  0  0
  137.9690  135.3090  148.0600 C   0  0  0  0  0  2  0  0  0  0  0  0
  137.2450  135.1770  149.4000 C   0  0  0  0  0  2  0  0  0  0  0  0
  135.9150  134.4420  149.2310 C   0  0  0  0  0  2  0  0  0  0  0  0
  134.7360  135.3820  149.2280 C   0  0  0  0  0  0  0  0  0  0  0  0
  134.3860  136.0800  148.0650 C   0  0  0  0  0  3  0  0  0  0  0  0
  133.2660  136.9140  148.0520 C   0  0  0  0  0  3  0  0  0  0  0  0
  132.4930  137.0650  149.2020 C   0  0  0  0  0  3  0  0  0  0  0  0
  132.8510  136.3970  150.3720 C   0  0  0  0  0  3  0  0  0  0  0  0
  133.9710  135.5650  150.3880 C   0  0  0  0  0  3  0  0  0  0  0  0
  1  5  1  0  0  0  0
  2  1  2  0  0  0  0
  3  8  1  0  0  0  0
  3 10  1  0  0  0  0
  4  3  2  0  0  0  0
  5  6  2  0  0  0  0
  5  4  1  0  0  0  0
  6  7  1  0  0  0  0
  7  8  2  0  0  0  0
  8 11  1  0  0  0  0
 10  9  1  0  0  0  0
 11 12  1  0  0  0  0
 13  2  1  0  0  0  0
 14 13  2  0  0  0  0
 15 13  1  0  0  0  0
 16 15  1  0  0  0  0
 16 17  1  0  0  0  0
 18 17  1  0  0  0  0
 19 18  1  0  0  0  0
 19 24  1  0  0  0  0
 20 19  2  0  0  0  0
 21 20  1  0  0  0  0
 21 22  2  0  0  0  0
 22 23  1  0  0  0  0
 23 24  2  0  0  0  0
M  END
>  <MODEL>
7

>  <REMARK>
 VINA RESULT:    -5.687      3.692      9.038
 INTER + INTRA:         -10.610
 INTER:                  -9.670
 INTRA:                  -0.940
 UNBOUND:                -2.097
  Name = CHEMBL5274645
  10 active torsions:
  status: ('A' for Active; 'I' for Inactive)
    1  A    between atoms: C_1  and  O_2
    2  A    between atoms: O_2  and  C_3
    3  A    between atoms: C_5  and  C_6
    4  A    between atoms: C_7  and  C_8
    5  A    between atoms: C_8  and  C_10
    6  A    between atoms: C_10  and  C_11
    7  A    between atoms: C_11  and  C_12
    8  A    between atoms: C_12  and  C_13
    9  A    between atoms: C_13  and  C_14
   10  A    between atoms: C_22  and  O_23
                            x       y       z     vdW  Elec       q    Type
                         _______ _______ _______ _____ _____    ______ ____

>  <TORSDO>
F 9

>  <SCORE>
-5.687

>  <RMSD_LB>
3.692

>  <RMSD_UB>
9.038

$$$$
CHEMBL5274645
 OpenBabel10172500293D

 24 25  0  0  0  0  0  0  0  0999 V2000
  136.8270  135.9720  150.8450 C   0  0  0  0  0  3  0  0  0  0  0  0
  136.1360  134.8310  150.6980 C   0  0  0  0  0  3  0  0  0  0  0  0
  137.9030  138.2870  148.0360 C   0  0  0  0  0  0  0  0  0  0  0  0
  137.1450  137.7130  149.0620 C   0  0  0  0  0  3  0  0  0  0  0  0
  137.6130  136.5950  149.7710 C   0  0  0  0  0  0  0  0  0  0  0  0
  138.8410  136.0280  149.4090 C   0  0  0  0  0  3  0  0  0  0  0  0
  139.6050  136.5850  148.3800 C   0  0  0  0  0  3  0  0  0  0  0  0
  139.1340  137.7100  147.7040 C   0  0  0  0  0  0  0  0  0  0  0  0
  136.5160  139.2050  146.3270 C   0  0  0  0  0  1  0  0  0  0  0  0
  137.5230  139.3890  147.3120 O   0  0  0  0  0  0  0  0  0  0  0  0
  139.8800  138.2600  146.6980 O   0  0  0  0  0  0  0  0  0  0  0  0
  139.5040  138.3860  145.8490 H   0  0  0  0  0  0  0  0  0  0  0  0
  135.3580  134.2660  151.8360 C   0  0  0  0  0  0  0  0  0  0  0  0
  135.8480  134.1840  152.9610 O   0  0  0  0  0  0  0  0  0  0  0  0
  133.9640  133.7680  151.5110 C   0  0  0  0  0  2  0  0  0  0  0  0
  133.6200  133.9920  150.0420 C   0  0  0  0  0  2  0  0  0  0  0  0
  133.7960  132.7090  149.2300 C   0  0  0  0  0  2  0  0  0  0  0  0
  133.7770  133.0060  147.7300 C   0  0  0  0  0  2  0  0  0  0  0  0
  135.1360  133.3930  147.2040 C   0  0  0  0  0  0  0  0  0  0  0  0
  135.4300  134.7300  146.9090 C   0  0  0  0  0  3  0  0  0  0  0  0
  136.7040  135.0930  146.4670 C   0  0  0  0  0  3  0  0  0  0  0  0
  137.6910  134.1210  146.3070 C   0  0  0  0  0  3  0  0  0  0  0  0
  137.3990  132.7840  146.5710 C   0  0  0  0  0  3  0  0  0  0  0  0
  136.1260  132.4200  147.0110 C   0  0  0  0  0  3  0  0  0  0  0  0
  2  1  2  0  0  0  0
  2 13  1  0  0  0  0
  3  4  1  0  0  0  0
  4  5  2  0  0  0  0
  5  1  1  0  0  0  0
  6  5  1  0  0  0  0
  7  6  2  0  0  0  0
  8  3  2  0  0  0  0
  8  7  1  0  0  0  0
  9 10  1  0  0  0  0
 10  3  1  0  0  0  0
 11  8  1  0  0  0  0
 12 11  1  0  0  0  0
 13 14  2  0  0  0  0
 15 13  1  0  0  0  0
 16 15  1  0  0  0  0
 17 16  1  0  0  0  0
 18 17  1  0  0  0  0
 19 18  1  0  0  0  0
 20 19  2  0  0  0  0
 21 20  1  0  0  0  0
 22 21  2  0  0  0  0
 22 23  1  0  0  0  0
 23 24  2  0  0  0  0
 24 19  1  0  0  0  0
M  END
>  <MODEL>
8

>  <REMARK>
 VINA RESULT:    -5.613      4.055      7.024
 INTER + INTRA:         -10.498
 INTER:                  -8.246
 INTRA:                  -2.253
 UNBOUND:                -2.097
  Name = CHEMBL5274645
  10 active torsions:
  status: ('A' for Active; 'I' for Inactive)
    1  A    between atoms: C_1  and  O_2
    2  A    between atoms: O_2  and  C_3
    3  A    between atoms: C_5  and  C_6
    4  A    between atoms: C_7  and  C_8
    5  A    between atoms: C_8  and  C_10
    6  A    between atoms: C_10  and  C_11
    7  A    between atoms: C_11  and  C_12
    8  A    between atoms: C_12  and  C_13
    9  A    between atoms: C_13  and  C_14
   10  A    between atoms: C_22  and  O_23
                            x       y       z     vdW  Elec       q    Type
                         _______ _______ _______ _____ _____    ______ ____

>  <TORSDO>
F 9

>  <SCORE>
-5.613

>  <RMSD_LB>
4.055

>  <RMSD_UB>
7.024

$$$$
CHEMBL5274645
 OpenBabel10172500293D

 24 25  0  0  0  0  0  0  0  0999 V2000
  136.7000  136.0540  150.8910 C   0  0  0  0  0  3  0  0  0  0  0  0
  136.1640  134.8250  150.9150 C   0  0  0  0  0  3  0  0  0  0  0  0
  139.4430  136.4730  148.3000 C   0  0  0  0  0  0  0  0  0  0  0  0
  138.6890  135.9570  149.3600 C   0  0  0  0  0  3  0  0  0  0  0  0
  137.4990  136.5760  149.7730 C   0  0  0  0  0  0  0  0  0  0  0  0
  137.0900  137.7520  149.1340 C   0  0  0  0  0  3  0  0  0  0  0  0
  137.8360  138.2850  148.0800 C   0  0  0  0  0  3  0  0  0  0  0  0
  139.0030  137.6420  147.6690 C   0  0  0  0  0  0  0  0  0  0  0  0
  141.7400  135.9580  148.6790 C   0  0  0  0  0  1  0  0  0  0  0  0
  140.6030  135.9150  147.8270 O   0  0  0  0  0  0  0  0  0  0  0  0
  139.7350  138.1590  146.6350 O   0  0  0  0  0  0  0  0  0  0  0  0
  139.4160  138.8990  146.1570 H   0  0  0  0  0  0  0  0  0  0  0  0
  135.3600  134.3720  152.0850 C   0  0  0  0  0  0  0  0  0  0  0  0
  135.8180  134.4200  153.2260 O   0  0  0  0  0  0  0  0  0  0  0  0
  133.9830  133.8190  151.7780 C   0  0  0  0  0  2  0  0  0  0  0  0
  133.6530  133.9400  150.2930 C   0  0  0  0  0  2  0  0  0  0  0  0
  133.9860  132.6490  149.5450 C   0  0  0  0  0  2  0  0  0  0  0  0
  133.8240  132.8360  148.0360 C   0  0  0  0  0  2  0  0  0  0  0  0
  135.0950  133.3060  147.3760 C   0  0  0  0  0  0  0  0  0  0  0  0
  135.2770  134.6610  147.0690 C   0  0  0  0  0  3  0  0  0  0  0  0
  136.4740  135.1020  146.5000 C   0  0  0  0  0  3  0  0  0  0  0  0
  137.4930  134.1920  146.2250 C   0  0  0  0  0  3  0  0  0  0  0  0
  137.3100  132.8380  146.5000 C   0  0  0  0  0  3  0  0  0  0  0  0
  136.1130  132.3950  147.0670 C   0  0  0  0  0  3  0  0  0  0  0  0
  1  2  2  0  0  0  0
  2 13  1  0  0  0  0
  3  4  1  0  0  0  0
  4  5  2  0  0  0  0
  5  1  1  0  0  0  0
  6  5  1  0  0  0  0
  7  6  2  0  0  0  0
  8  7  1  0  0  0  0
  8  3  2  0  0  0  0
 10  3  1  0  0  0  0
 10  9  1  0  0  0  0
 11  8  1  0  0  0  0
 12 11  1  0  0  0  0
 13 14  2  0  0  0  0
 15 13  1  0  0  0  0
 16 15  1  0  0  0  0
 17 16  1  0  0  0  0
 18 17  1  0  0  0  0
 19 18  1  0  0  0  0
 20 19  1  0  0  0  0
 21 20  2  0  0  0  0
 22 21  1  0  0  0  0
 22 23  2  0  0  0  0
 23 24  1  0  0  0  0
 24 19  2  0  0  0  0
M  END
>  <MODEL>
9

>  <REMARK>
 VINA RESULT:    -5.416      4.107      7.256
 INTER + INTRA:         -10.203
 INTER:                  -8.107
 INTRA:                  -2.097
 UNBOUND:                -2.097
  Name = CHEMBL5274645
  10 active torsions:
  status: ('A' for Active; 'I' for Inactive)
    1  A    between atoms: C_1  and  O_2
    2  A    between atoms: O_2  and  C_3
    3  A    between atoms: C_5  and  C_6
    4  A    between atoms: C_7  and  C_8
    5  A    between atoms: C_8  and  C_10
    6  A    between atoms: C_10  and  C_11
    7  A    between atoms: C_11  and  C_12
    8  A    between atoms: C_12  and  C_13
    9  A    between atoms: C_13  and  C_14
   10  A    between atoms: C_22  and  O_23
                            x       y       z     vdW  Elec       q    Type
                         _______ _______ _______ _____ _____    ______ ____

>  <TORSDO>
F 9

>  <SCORE>
-5.416

>  <RMSD_LB>
4.107

>  <RMSD_UB>
7.256

$$$$
