CHEMBL5009086
 OpenBabel10172500303D

 26 27  0  0  1  0  0  0  0  0999 V2000
  134.6580  135.6460  148.7900 C   0  0  1  0  0  0  0  0  0  0  0  0
  135.4540  136.9350  148.5350 C   0  0  0  0  0  1  0  0  0  0  0  0
  135.3490  134.7580  149.8450 C   0  0  0  0  0  2  0  0  0  0  0  0
  134.7070  135.0770  151.1190 N   0  0  0  0  0  0  0  0  0  0  0  0
  135.1200  134.4980  152.2960 C   0  0  0  0  0  0  0  0  0  0  0  0
  136.0460  133.6900  152.3430 O   0  0  0  0  0  0  0  0  0  0  0  0
  134.4130  134.8770  153.4050 N   0  0  0  0  0  0  0  0  0  0  0  0
  133.5900  135.9830  150.9350 C   0  0  0  0  0  2  0  0  0  0  0  0
  133.2730  135.8920  149.4490 C   0  0  1  0  0  3  0  0  0  0  0  0
  132.4850  137.0990  148.9590 C   0  0  0  0  0  1  0  0  0  0  0  0
  133.6770  135.5220  153.2900 H   0  0  0  0  0  0  0  0  0  0  0  0
  134.4910  134.8880  147.4770 C   0  0  0  0  0  0  0  0  0  0  0  0
  133.8270  133.8670  147.3470 O   0  0  0  0  0  0  0  0  0  0  0  0
  134.4050  135.5210  145.2290 C   0  0  0  0  0  1  0  0  0  0  0  0
  135.1440  135.5100  146.4550 O   0  0  0  0  0  0  0  0  0  0  0  0
  134.6860  134.3820  154.7350 C   0  0  0  0  0  2  0  0  0  0  0  0
  135.4430  135.3990  155.5550 C   0  0  0  0  0  0  0  0  0  0  0  0
  135.5380  135.2500  156.9420 C   0  0  0  0  0  3  0  0  0  0  0  0
  136.2510  136.1740  157.7060 C   0  0  0  0  0  3  0  0  0  0  0  0
  136.8720  137.2710  157.0960 C   0  0  0  0  0  0  0  0  0  0  0  0
  136.7750  137.4540  155.7130 C   0  0  0  0  0  0  0  0  0  0  0  0
  136.0580  136.5110  154.9560 C   0  0  0  0  0  3  0  0  0  0  0  0
  137.5650  138.1420  157.8910 O   0  0  0  0  0  0  0  0  0  0  0  0
  137.3050  138.2710  158.7820 H   0  0  0  0  0  0  0  0  0  0  0  0
  137.3070  138.4600  154.9510 O   0  0  0  0  0  0  0  0  0  0  0  0
  138.7190  138.5200  154.8040 C   0  0  0  0  0  1  0  0  0  0  0  0
  1  2  1  6  0  0  0
  1  9  1  0  0  0  0
  1  3  1  0  0  0  0
  3  4  1  0  0  0  0
  4  5  1  0  0  0  0
  5  6  2  0  0  0  0
  5  7  1  0  0  0  0
  7 16  1  0  0  0  0
  8  4  1  0  0  0  0
  9 10  1  6  0  0  0
  9  8  1  0  0  0  0
 11  7  1  0  0  0  0
 12  1  1  0  0  0  0
 13 12  2  0  0  0  0
 14 15  1  0  0  0  0
 15 12  1  0  0  0  0
 16 17  1  0  0  0  0
 17 18  1  0  0  0  0
 18 19  2  0  0  0  0
 20 19  1  0  0  0  0
 20 23  1  0  0  0  0
 21 20  2  0  0  0  0
 22 17  2  0  0  0  0
 22 21  1  0  0  0  0
 23 24  1  0  0  0  0
 25 21  1  0  0  0  0
 26 25  1  0  0  0  0
M  END
>  <MODEL>
1

>  <REMARK>
 VINA RESULT:    -6.961      0.000      0.000
 INTER + INTRA:          -9.759
 INTER:                  -9.326
 INTRA:                  -0.433
 UNBOUND:                -0.560
  Name = CHEMBL5009086
  10 active torsions:
  status: ('A' for Active; 'I' for Inactive)
    1  A    between atoms: C_1  and  O_2
    2  A    between atoms: O_2  and  C_3
    3  A    between atoms: C_3  and  C_5
    4  A    between atoms: C_5  and  C_6
    5  A    between atoms: N_11  and  C_12
    6  A    between atoms: C_12  and  C_13
    7  A    between atoms: C_16  and  O_17
    8  A    between atoms: C_18  and  O_19
    9  A    between atoms: O_19  and  C_20
   10  A    between atoms: C_23  and  C_24
                            x       y       z     vdW  Elec       q    Type
                         _______ _______ _______ _____ _____    ______ ____

>  <TORSDO>
F 6

>  <SCORE>
-6.961

>  <RMSD_LB>
0.000

>  <RMSD_UB>
0.000

$$$$
CHEMBL5009086
 OpenBabel10172500303D

 26 27  0  0  1  0  0  0  0  0999 V2000
  143.0250  138.5400  151.9950 C   0  0  1  0  0  0  0  0  0  0  0  0
  142.9010  139.6860  150.9800 C   0  0  0  0  0  1  0  0  0  0  0  0
  142.2880  138.8700  153.3080 C   0  0  0  0  0  2  0  0  0  0  0  0
  140.9680  138.2530  153.1920 N   0  0  0  0  0  0  0  0  0  0  0  0
  140.0190  138.3960  154.1760 C   0  0  0  0  0  0  0  0  0  0  0  0
  140.2230  139.0470  155.1990 O   0  0  0  0  0  0  0  0  0  0  0  0
  138.8380  137.7460  153.9390 N   0  0  0  0  0  0  0  0  0  0  0  0
  140.8620  137.4570  151.9840 C   0  0  0  0  0  2  0  0  0  0  0  0
  142.3050  137.2380  151.5510 C   0  0  1  0  0  3  0  0  0  0  0  0
  142.4070  136.8640  150.0790 C   0  0  0  0  0  1  0  0  0  0  0  0
  138.7480  137.2350  153.1020 H   0  0  0  0  0  0  0  0  0  0  0  0
  144.5000  138.2620  152.2640 C   0  0  0  0  0  0  0  0  0  0  0  0
  145.3950  138.4190  151.4420 O   0  0  0  0  0  0  0  0  0  0  0  0
  145.5360  136.6900  153.6490 C   0  0  0  0  0  1  0  0  0  0  0  0
  144.7060  137.8510  153.5470 O   0  0  0  0  0  0  0  0  0  0  0  0
  137.7150  137.7680  154.8490 C   0  0  0  0  0  2  0  0  0  0  0  0
  136.7510  136.6430  154.5610 C   0  0  0  0  0  0  0  0  0  0  0  0
  136.0950  135.9960  155.6130 C   0  0  0  0  0  3  0  0  0  0  0  0
  135.1880  134.9660  155.3550 C   0  0  0  0  0  3  0  0  0  0  0  0
  134.9320  134.5590  154.0400 C   0  0  0  0  0  0  0  0  0  0  0  0
  135.5910  135.1760  152.9710 C   0  0  0  0  0  0  0  0  0  0  0  0
  136.4970  136.2150  153.2470 C   0  0  0  0  0  3  0  0  0  0  0  0
  134.0290  133.5510  153.8430 O   0  0  0  0  0  0  0  0  0  0  0  0
  133.7400  133.3440  152.9760 H   0  0  0  0  0  0  0  0  0  0  0  0
  135.4730  134.9090  151.6330 O   0  0  0  0  0  0  0  0  0  0  0  0
  135.5750  135.9920  150.7190 C   0  0  0  0  0  1  0  0  0  0  0  0
  1  2  1  6  0  0  0
  1 12  1  0  0  0  0
  1  3  1  0  0  0  0
  4  3  1  0  0  0  0
  4  5  1  0  0  0  0
  5  6  2  0  0  0  0
  7  5  1  0  0  0  0
  7 16  1  0  0  0  0
  8  4  1  0  0  0  0
  9 10  1  6  0  0  0
  9  8  1  0  0  0  0
  9  1  1  0  0  0  0
 11  7  1  0  0  0  0
 12 15  1  0  0  0  0
 13 12  2  0  0  0  0
 15 14  1  0  0  0  0
 17 16  1  0  0  0  0
 17 18  1  0  0  0  0
 19 18  2  0  0  0  0
 20 19  1  0  0  0  0
 21 22  1  0  0  0  0
 21 20  2  0  0  0  0
 22 17  2  0  0  0  0
 23 20  1  0  0  0  0
 24 23  1  0  0  0  0
 25 21  1  0  0  0  0
 26 25  1  0  0  0  0
M  END
>  <MODEL>
2

>  <REMARK>
 VINA RESULT:    -6.960      4.519      7.878
 INTER + INTRA:          -9.757
 INTER:                  -9.228
 INTRA:                  -0.530
 UNBOUND:                -0.560
  Name = CHEMBL5009086
  10 active torsions:
  status: ('A' for Active; 'I' for Inactive)
    1  A    between atoms: C_1  and  O_2
    2  A    between atoms: O_2  and  C_3
    3  A    between atoms: C_3  and  C_5
    4  A    between atoms: C_5  and  C_6
    5  A    between atoms: N_11  and  C_12
    6  A    between atoms: C_12  and  C_13
    7  A    between atoms: C_16  and  O_17
    8  A    between atoms: C_18  and  O_19
    9  A    between atoms: O_19  and  C_20
   10  A    between atoms: C_23  and  C_24
                            x       y       z     vdW  Elec       q    Type
                         _______ _______ _______ _____ _____    ______ ____

>  <TORSDO>
F 6

>  <SCORE>
-6.960

>  <RMSD_LB>
4.519

>  <RMSD_UB>
7.878

$$$$
CHEMBL5009086
 OpenBabel10172500303D

 26 27  0  0  1  0  0  0  0  0999 V2000
  133.8540  134.8340  149.9780 C   0  0  1  0  0  0  0  0  0  0  0  0
  132.7210  135.7480  150.4680 C   0  0  0  0  0  1  0  0  0  0  0  0
  134.9360  135.6340  149.2240 C   0  0  0  0  0  2  0  0  0  0  0  0
  135.9750  135.9290  150.2080 N   0  0  0  0  0  0  0  0  0  0  0  0
  137.0770  136.6840  149.8850 C   0  0  0  0  0  0  0  0  0  0  0  0
  137.2480  137.1520  148.7610 O   0  0  0  0  0  0  0  0  0  0  0  0
  137.9750  136.8610  150.9030 N   0  0  0  0  0  0  0  0  0  0  0  0
  135.7050  135.2730  151.4740 C   0  0  0  0  0  2  0  0  0  0  0  0
  134.6820  134.2000  151.1290 C   0  0  1  0  0  3  0  0  0  0  0  0
  133.9080  133.7360  152.3550 C   0  0  0  0  0  1  0  0  0  0  0  0
  137.7780  136.4490  151.7750 H   0  0  0  0  0  0  0  0  0  0  0  0
  133.2720  133.7450  149.0840 C   0  0  0  0  0  0  0  0  0  0  0  0
  132.2160  133.8430  148.4710 O   0  0  0  0  0  0  0  0  0  0  0  0
  134.7240  132.4930  147.7470 C   0  0  0  0  0  1  0  0  0  0  0  0
  134.0930  132.6580  149.0210 O   0  0  0  0  0  0  0  0  0  0  0  0
  139.1990  137.6190  150.7680 C   0  0  0  0  0  2  0  0  0  0  0  0
  139.8540  137.8510  152.1080 C   0  0  0  0  0  0  0  0  0  0  0  0
  141.2310  137.6620  152.2570 C   0  0  0  0  0  3  0  0  0  0  0  0
  141.8470  137.8900  153.4880 C   0  0  0  0  0  3  0  0  0  0  0  0
  141.0940  138.3010  154.5940 C   0  0  0  0  0  0  0  0  0  0  0  0
  139.7110  138.4770  154.4770 C   0  0  0  0  0  0  0  0  0  0  0  0
  139.1050  138.2480  153.2290 C   0  0  0  0  0  3  0  0  0  0  0  0
  141.7490  138.5180  155.7740 O   0  0  0  0  0  0  0  0  0  0  0  0
  142.3030  139.2680  155.8710 H   0  0  0  0  0  0  0  0  0  0  0  0
  138.8200  138.8640  155.4420 O   0  0  0  0  0  0  0  0  0  0  0  0
  138.2680  137.8650  156.2890 C   0  0  0  0  0  1  0  0  0  0  0  0
  1  2  1  1  0  0  0
  1  9  1  0  0  0  0
  3  1  1  0  0  0  0
  3  4  1  0  0  0  0
  4  8  1  0  0  0  0
  5  4  1  0  0  0  0
  5  7  1  0  0  0  0
  6  5  2  0  0  0  0
  7 11  1  0  0  0  0
  9  8  1  0  0  0  0
  9 10  1  1  0  0  0
 12  1  1  0  0  0  0
 13 12  2  0  0  0  0
 14 15  1  0  0  0  0
 15 12  1  0  0  0  0
 16  7  1  0  0  0  0
 16 17  1  0  0  0  0
 17 18  2  0  0  0  0
 17 22  1  0  0  0  0
 18 19  1  0  0  0  0
 19 20  2  0  0  0  0
 20 23  1  0  0  0  0
 21 20  1  0  0  0  0
 21 25  1  0  0  0  0
 22 21  2  0  0  0  0
 23 24  1  0  0  0  0
 25 26  1  0  0  0  0
M  END
>  <MODEL>
3

>  <REMARK>
 VINA RESULT:    -6.889      2.514      4.269
 INTER + INTRA:          -9.665
 INTER:                  -9.228
 INTRA:                  -0.436
 UNBOUND:                -0.560
  Name = CHEMBL5009086
  10 active torsions:
  status: ('A' for Active; 'I' for Inactive)
    1  A    between atoms: C_1  and  O_2
    2  A    between atoms: O_2  and  C_3
    3  A    between atoms: C_3  and  C_5
    4  A    between atoms: C_5  and  C_6
    5  A    between atoms: N_11  and  C_12
    6  A    between atoms: C_12  and  C_13
    7  A    between atoms: C_16  and  O_17
    8  A    between atoms: C_18  and  O_19
    9  A    between atoms: O_19  and  C_20
   10  A    between atoms: C_23  and  C_24
                            x       y       z     vdW  Elec       q    Type
                         _______ _______ _______ _____ _____    ______ ____

>  <TORSDO>
F 6

>  <SCORE>
-6.889

>  <RMSD_LB>
2.514

>  <RMSD_UB>
4.269

$$$$
CHEMBL5009086
 OpenBabel10172500303D

 26 27  0  0  1  0  0  0  0  0999 V2000
  134.7030  134.4170  148.5940 C   0  0  1  0  0  0  0  0  0  0  0  0
  134.7040  132.9580  148.1140 C   0  0  0  0  0  1  0  0  0  0  0  0
  133.8010  134.6030  149.8300 C   0  0  0  0  0  2  0  0  0  0  0  0
  134.6880  134.5130  150.9890 N   0  0  0  0  0  0  0  0  0  0  0  0
  134.2010  134.5840  152.2730 C   0  0  0  0  0  0  0  0  0  0  0  0
  133.0030  134.7210  152.5170 O   0  0  0  0  0  0  0  0  0  0  0  0
  135.1500  134.5050  153.2560 N   0  0  0  0  0  0  0  0  0  0  0  0
  136.0780  134.4220  150.5850 C   0  0  0  0  0  2  0  0  0  0  0  0
  136.0800  134.8920  149.1370 C   0  0  1  0  0  3  0  0  0  0  0  0
  137.3150  134.4160  148.3860 C   0  0  0  0  0  1  0  0  0  0  0  0
  136.0920  134.4050  152.9870 H   0  0  0  0  0  0  0  0  0  0  0  0
  134.2460  135.3220  147.4550 C   0  0  0  0  0  0  0  0  0  0  0  0
  134.1620  134.9730  146.2840 O   0  0  0  0  0  0  0  0  0  0  0  0
  132.6510  137.0300  147.3990 C   0  0  0  0  0  1  0  0  0  0  0  0
  133.9040  136.5620  147.9080 O   0  0  0  0  0  0  0  0  0  0  0  0
  134.8460  134.5620  154.6680 C   0  0  0  0  0  2  0  0  0  0  0  0
  135.7240  135.5620  155.3810 C   0  0  0  0  0  0  0  0  0  0  0  0
  135.8840  135.4910  156.7670 C   0  0  0  0  0  3  0  0  0  0  0  0
  136.7080  136.4000  157.4320 C   0  0  0  0  0  3  0  0  0  0  0  0
  137.3760  137.4040  156.7210 C   0  0  0  0  0  0  0  0  0  0  0  0
  137.2160  137.5100  155.3350 C   0  0  0  0  0  0  0  0  0  0  0  0
  136.3870  136.5830  154.6790 C   0  0  0  0  0  3  0  0  0  0  0  0
  138.1770  138.2640  157.4210 O   0  0  0  0  0  0  0  0  0  0  0  0
  139.1010  138.1120  157.4650 H   0  0  0  0  0  0  0  0  0  0  0  0
  137.7790  138.4220  154.4830 O   0  0  0  0  0  0  0  0  0  0  0  0
  138.4730  137.9380  153.3420 C   0  0  0  0  0  1  0  0  0  0  0  0
  1  2  1  6  0  0  0
  1  9  1  0  0  0  0
  1  3  1  0  0  0  0
  3  4  1  0  0  0  0
  4  5  1  0  0  0  0
  5  6  2  0  0  0  0
  5  7  1  0  0  0  0
  7 16  1  0  0  0  0
  8  4  1  0  0  0  0
  9 10  1  6  0  0  0
  9  8  1  0  0  0  0
 11  7  1  0  0  0  0
 12 15  1  0  0  0  0
 12  1  1  0  0  0  0
 13 12  2  0  0  0  0
 14 15  1  0  0  0  0
 16 17  1  0  0  0  0
 17 18  1  0  0  0  0
 18 19  2  0  0  0  0
 20 23  1  0  0  0  0
 20 19  1  0  0  0  0
 21 20  2  0  0  0  0
 22 21  1  0  0  0  0
 22 17  2  0  0  0  0
 23 24  1  0  0  0  0
 25 21  1  0  0  0  0
 26 25  1  0  0  0  0
M  END
>  <MODEL>
4

>  <REMARK>
 VINA RESULT:    -6.782      1.329      2.083
 INTER + INTRA:          -9.522
 INTER:                  -8.966
 INTRA:                  -0.556
 UNBOUND:                -0.560
  Name = CHEMBL5009086
  10 active torsions:
  status: ('A' for Active; 'I' for Inactive)
    1  A    between atoms: C_1  and  O_2
    2  A    between atoms: O_2  and  C_3
    3  A    between atoms: C_3  and  C_5
    4  A    between atoms: C_5  and  C_6
    5  A    between atoms: N_11  and  C_12
    6  A    between atoms: C_12  and  C_13
    7  A    between atoms: C_16  and  O_17
    8  A    between atoms: C_18  and  O_19
    9  A    between atoms: O_19  and  C_20
   10  A    between atoms: C_23  and  C_24
                            x       y       z     vdW  Elec       q    Type
                         _______ _______ _______ _____ _____    ______ ____

>  <TORSDO>
F 6

>  <SCORE>
-6.782

>  <RMSD_LB>
1.329

>  <RMSD_UB>
2.083

$$$$
CHEMBL5009086
 OpenBabel10172500303D

 26 27  0  0  1  0  0  0  0  0999 V2000
  134.9260  134.6340  148.6550 C   0  0  1  0  0  0  0  0  0  0  0  0
  135.0110  133.1890  148.1390 C   0  0  0  0  0  1  0  0  0  0  0  0
  133.9900  134.7400  149.8750 C   0  0  0  0  0  2  0  0  0  0  0  0
  134.8540  134.6650  151.0510 N   0  0  0  0  0  0  0  0  0  0  0  0
  134.3370  134.6760  152.3250 C   0  0  0  0  0  0  0  0  0  0  0  0
  133.1300  134.7460  152.5450 O   0  0  0  0  0  0  0  0  0  0  0  0
  135.2680  134.6200  153.3270 N   0  0  0  0  0  0  0  0  0  0  0  0
  136.2560  134.6550  150.6760 C   0  0  0  0  0  2  0  0  0  0  0  0
  136.2640  135.1630  149.2410 C   0  0  1  0  0  3  0  0  0  0  0  0
  137.5380  134.7710  148.5060 C   0  0  0  0  0  1  0  0  0  0  0  0
  136.2200  134.5750  153.0760 H   0  0  0  0  0  0  0  0  0  0  0  0
  134.4460  135.5440  147.5300 C   0  0  0  0  0  0  0  0  0  0  0  0
  134.4480  135.2380  146.3430 O   0  0  0  0  0  0  0  0  0  0  0  0
  132.7610  137.1570  147.3920 C   0  0  0  0  0  1  0  0  0  0  0  0
  133.9780  136.7300  148.0110 O   0  0  0  0  0  0  0  0  0  0  0  0
  134.9320  134.6230  154.7330 C   0  0  0  0  0  2  0  0  0  0  0  0
  135.8320  135.5520  155.5120 C   0  0  0  0  0  0  0  0  0  0  0  0
  136.6600  136.4540  154.8370 C   0  0  0  0  0  3  0  0  0  0  0  0
  137.4820  137.3290  155.5490 C   0  0  0  0  0  3  0  0  0  0  0  0
  137.4990  137.3060  156.9490 C   0  0  0  0  0  0  0  0  0  0  0  0
  136.6960  136.3980  157.6480 C   0  0  0  0  0  0  0  0  0  0  0  0
  135.8690  135.5280  156.9160 C   0  0  0  0  0  3  0  0  0  0  0  0
  138.3180  138.1900  157.5970 O   0  0  0  0  0  0  0  0  0  0  0  0
  138.5420  139.0040  157.1910 H   0  0  0  0  0  0  0  0  0  0  0  0
  136.5870  136.2290  159.0020 O   0  0  0  0  0  0  0  0  0  0  0  0
  135.6990  137.0780  159.7170 C   0  0  0  0  0  1  0  0  0  0  0  0
  1  2  1  6  0  0  0
  1  9  1  0  0  0  0
  1  3  1  0  0  0  0
  3  4  1  0  0  0  0
  4  5  1  0  0  0  0
  5  6  2  0  0  0  0
  5  7  1  0  0  0  0
  7 16  1  0  0  0  0
  8  4  1  0  0  0  0
  9 10  1  6  0  0  0
  9  8  1  0  0  0  0
 11  7  1  0  0  0  0
 12 15  1  0  0  0  0
 12  1  1  0  0  0  0
 13 12  2  0  0  0  0
 14 15  1  0  0  0  0
 16 17  1  0  0  0  0
 17 22  1  0  0  0  0
 18 17  2  0  0  0  0
 18 19  1  0  0  0  0
 19 20  2  0  0  0  0
 20 23  1  0  0  0  0
 20 21  1  0  0  0  0
 21 25  1  0  0  0  0
 22 21  2  0  0  0  0
 24 23  1  0  0  0  0
 25 26  1  0  0  0  0
M  END
>  <MODEL>
5

>  <REMARK>
 VINA RESULT:    -6.742      1.442      2.741
 INTER + INTRA:          -9.471
 INTER:                  -8.961
 INTRA:                  -0.510
 UNBOUND:                -0.560
  Name = CHEMBL5009086
  10 active torsions:
  status: ('A' for Active; 'I' for Inactive)
    1  A    between atoms: C_1  and  O_2
    2  A    between atoms: O_2  and  C_3
    3  A    between atoms: C_3  and  C_5
    4  A    between atoms: C_5  and  C_6
    5  A    between atoms: N_11  and  C_12
    6  A    between atoms: C_12  and  C_13
    7  A    between atoms: C_16  and  O_17
    8  A    between atoms: C_18  and  O_19
    9  A    between atoms: O_19  and  C_20
   10  A    between atoms: C_23  and  C_24
                            x       y       z     vdW  Elec       q    Type
                         _______ _______ _______ _____ _____    ______ ____

>  <TORSDO>
F 6

>  <SCORE>
-6.742

>  <RMSD_LB>
1.442

>  <RMSD_UB>
2.741

$$$$
CHEMBL5009086
 OpenBabel10172500303D

 26 27  0  0  1  0  0  0  0  0999 V2000
  139.8870  138.4150  151.9140 C   0  0  1  0  0  0  0  0  0  0  0  0
  139.6240  139.8090  151.3250 C   0  0  0  0  0  1  0  0  0  0  0  0
  138.6830  137.9150  152.7360 C   0  0  0  0  0  2  0  0  0  0  0  0
  137.8980  137.0790  151.8290 N   0  0  0  0  0  0  0  0  0  0  0  0
  136.7120  136.5070  152.2250 C   0  0  0  0  0  0  0  0  0  0  0  0
  136.2470  136.6670  153.3510 O   0  0  0  0  0  0  0  0  0  0  0  0
  136.0990  135.7340  151.2760 N   0  0  0  0  0  0  0  0  0  0  0  0
  138.5720  136.9030  150.5570 C   0  0  0  0  0  2  0  0  0  0  0  0
  140.0140  137.3010  150.8380 C   0  0  1  0  0  3  0  0  0  0  0  0
  140.7650  137.6610  149.5630 C   0  0  0  0  0  1  0  0  0  0  0  0
  136.5340  135.6430  150.3970 H   0  0  0  0  0  0  0  0  0  0  0  0
  141.1440  138.4610  152.7760 C   0  0  0  0  0  0  0  0  0  0  0  0
  141.2960  137.8250  153.8120 O   0  0  0  0  0  0  0  0  0  0  0  0
  143.3930  138.6740  152.1810 C   0  0  0  0  0  1  0  0  0  0  0  0
  142.0950  139.2720  152.2310 O   0  0  0  0  0  0  0  0  0  0  0  0
  134.8470  135.0440  151.4930 C   0  0  0  0  0  2  0  0  0  0  0  0
  134.2740  134.5230  150.1970 C   0  0  0  0  0  0  0  0  0  0  0  0
  134.3770  133.1650  149.8810 C   0  0  0  0  0  3  0  0  0  0  0  0
  133.8350  132.6710  148.6940 C   0  0  0  0  0  3  0  0  0  0  0  0
  133.1910  133.5310  147.7960 C   0  0  0  0  0  0  0  0  0  0  0  0
  133.0930  134.8980  148.0780 C   0  0  0  0  0  0  0  0  0  0  0  0
  133.6390  135.3790  149.2810 C   0  0  0  0  0  3  0  0  0  0  0  0
  132.6710  132.9940  146.6510 O   0  0  0  0  0  0  0  0  0  0  0  0
  131.8050  133.2240  146.3780 H   0  0  0  0  0  0  0  0  0  0  0  0
  132.5110  135.8810  147.3230 O   0  0  0  0  0  0  0  0  0  0  0  0
  133.3540  136.7240  146.5500 C   0  0  0  0  0  1  0  0  0  0  0  0
  1  2  1  6  0  0  0
  1  3  1  0  0  0  0
  1 12  1  0  0  0  0
  4  5  1  0  0  0  0
  4  3  1  0  0  0  0
  5  6  2  0  0  0  0
  7 16  1  0  0  0  0
  7  5  1  0  0  0  0
  8  9  1  0  0  0  0
  8  4  1  0  0  0  0
  9 10  1  6  0  0  0
  9  1  1  0  0  0  0
 11  7  1  0  0  0  0
 12 13  2  0  0  0  0
 14 15  1  0  0  0  0
 15 12  1  0  0  0  0
 17 16  1  0  0  0  0
 18 17  1  0  0  0  0
 19 18  2  0  0  0  0
 20 21  2  0  0  0  0
 20 19  1  0  0  0  0
 21 22  1  0  0  0  0
 22 17  2  0  0  0  0
 23 20  1  0  0  0  0
 24 23  1  0  0  0  0
 25 21  1  0  0  0  0
 26 25  1  0  0  0  0
M  END
>  <MODEL>
6

>  <REMARK>
 VINA RESULT:    -6.711      3.169      7.952
 INTER + INTRA:          -9.429
 INTER:                  -8.954
 INTRA:                  -0.475
 UNBOUND:                -0.560
  Name = CHEMBL5009086
  10 active torsions:
  status: ('A' for Active; 'I' for Inactive)
    1  A    between atoms: C_1  and  O_2
    2  A    between atoms: O_2  and  C_3
    3  A    between atoms: C_3  and  C_5
    4  A    between atoms: C_5  and  C_6
    5  A    between atoms: N_11  and  C_12
    6  A    between atoms: C_12  and  C_13
    7  A    between atoms: C_16  and  O_17
    8  A    between atoms: C_18  and  O_19
    9  A    between atoms: O_19  and  C_20
   10  A    between atoms: C_23  and  C_24
                            x       y       z     vdW  Elec       q    Type
                         _______ _______ _______ _____ _____    ______ ____

>  <TORSDO>
F 6

>  <SCORE>
-6.711

>  <RMSD_LB>
3.169

>  <RMSD_UB>
7.952

$$$$
CHEMBL5009086
 OpenBabel10172500303D

 26 27  0  0  1  0  0  0  0  0999 V2000
  137.1710  133.7740  143.9560 C   0  0  1  0  0  0  0  0  0  0  0  0
  138.3080  134.7120  144.3880 C   0  0  0  0  0  1  0  0  0  0  0  0
  136.7600  132.8240  145.0980 C   0  0  0  0  0  2  0  0  0  0  0  0
  135.6170  133.4560  145.7540 N   0  0  0  0  0  0  0  0  0  0  0  0
  135.0250  132.8970  146.8620 C   0  0  0  0  0  0  0  0  0  0  0  0
  135.4220  131.8460  147.3610 O   0  0  0  0  0  0  0  0  0  0  0  0
  133.9530  133.5910  147.3560 N   0  0  0  0  0  0  0  0  0  0  0  0
  135.1930  134.6470  145.0430 C   0  0  0  0  0  2  0  0  0  0  0  0
  135.8340  134.5130  143.6690 C   0  0  1  0  0  3  0  0  0  0  0  0
  135.9300  135.8520  142.9520 C   0  0  0  0  0  1  0  0  0  0  0  0
  133.6850  134.4210  146.8990 H   0  0  0  0  0  0  0  0  0  0  0  0
  137.6090  132.9810  142.7290 C   0  0  0  0  0  0  0  0  0  0  0  0
  137.3980  131.7860  142.5660 O   0  0  0  0  0  0  0  0  0  0  0  0
  138.6270  133.0840  140.6280 C   0  0  0  0  0  1  0  0  0  0  0  0
  138.2330  133.7780  141.8160 O   0  0  0  0  0  0  0  0  0  0  0  0
  133.1920  133.1710  148.5110 C   0  0  0  0  0  2  0  0  0  0  0  0
  133.4430  134.0760  149.6930 C   0  0  0  0  0  0  0  0  0  0  0  0
  132.9820  135.3950  149.6760 C   0  0  0  0  0  3  0  0  0  0  0  0
  133.1940  136.2330  150.7720 C   0  0  0  0  0  3  0  0  0  0  0  0
  133.8810  135.7670  151.8990 C   0  0  0  0  0  0  0  0  0  0  0  0
  134.3710  134.4570  151.9330 C   0  0  0  0  0  0  0  0  0  0  0  0
  134.1450  133.6240  150.8240 C   0  0  0  0  0  3  0  0  0  0  0  0
  134.0540  136.6280  152.9480 O   0  0  0  0  0  0  0  0  0  0  0  0
  134.5550  137.4110  152.8330 H   0  0  0  0  0  0  0  0  0  0  0  0
  135.0640  133.8360  152.9380 O   0  0  0  0  0  0  0  0  0  0  0  0
  134.3940  133.5940  154.1680 C   0  0  0  0  0  1  0  0  0  0  0  0
  1  2  1  1  0  0  0
  1  3  1  0  0  0  0
  3  4  1  0  0  0  0
  4  5  1  0  0  0  0
  5  7  1  0  0  0  0
  5  6  2  0  0  0  0
  7 16  1  0  0  0  0
  8  4  1  0  0  0  0
  9 10  1  1  0  0  0
  9  1  1  0  0  0  0
  9  8  1  0  0  0  0
 11  7  1  0  0  0  0
 12  1  1  0  0  0  0
 13 12  2  0  0  0  0
 14 15  1  0  0  0  0
 15 12  1  0  0  0  0
 16 17  1  0  0  0  0
 17 22  1  0  0  0  0
 18 17  2  0  0  0  0
 18 19  1  0  0  0  0
 19 20  2  0  0  0  0
 20 21  1  0  0  0  0
 20 23  1  0  0  0  0
 21 25  1  0  0  0  0
 22 21  2  0  0  0  0
 24 23  1  0  0  0  0
 25 26  1  0  0  0  0
M  END
>  <MODEL>
7

>  <REMARK>
 VINA RESULT:    -6.705      3.577      6.181
 INTER + INTRA:          -9.421
 INTER:                  -9.084
 INTRA:                  -0.338
 UNBOUND:                -0.560
  Name = CHEMBL5009086
  10 active torsions:
  status: ('A' for Active; 'I' for Inactive)
    1  A    between atoms: C_1  and  O_2
    2  A    between atoms: O_2  and  C_3
    3  A    between atoms: C_3  and  C_5
    4  A    between atoms: C_5  and  C_6
    5  A    between atoms: N_11  and  C_12
    6  A    between atoms: C_12  and  C_13
    7  A    between atoms: C_16  and  O_17
    8  A    between atoms: C_18  and  O_19
    9  A    between atoms: O_19  and  C_20
   10  A    between atoms: C_23  and  C_24
                            x       y       z     vdW  Elec       q    Type
                         _______ _______ _______ _____ _____    ______ ____

>  <TORSDO>
F 6

>  <SCORE>
-6.705

>  <RMSD_LB>
3.577

>  <RMSD_UB>
6.181

$$$$
CHEMBL5009086
 OpenBabel10172500303D

 26 27  0  0  1  0  0  0  0  0999 V2000
  133.9210  135.0630  149.9200 C   0  0  1  0  0  0  0  0  0  0  0  0
  132.6970  135.8190  150.4580 C   0  0  0  0  0  1  0  0  0  0  0  0
  134.9630  136.0310  149.3250 C   0  0  0  0  0  2  0  0  0  0  0  0
  135.9320  136.2800  150.3900 N   0  0  0  0  0  0  0  0  0  0  0  0
  136.9810  137.1520  150.2180 C   0  0  0  0  0  0  0  0  0  0  0  0
  137.1600  137.7680  149.1690 O   0  0  0  0  0  0  0  0  0  0  0  0
  137.8180  137.2690  151.2940 N   0  0  0  0  0  0  0  0  0  0  0  0
  135.6650  135.4530  151.5510 C   0  0  0  0  0  2  0  0  0  0  0  0
  134.7490  134.3550  151.0280 C   0  0  1  0  0  3  0  0  0  0  0  0
  133.9660  133.6850  152.1470 C   0  0  0  0  0  1  0  0  0  0  0  0
  137.6190  136.7370  152.0990 H   0  0  0  0  0  0  0  0  0  0  0  0
  133.4690  134.0510  148.8720 C   0  0  0  0  0  0  0  0  0  0  0  0
  132.4350  134.1430  148.2210 O   0  0  0  0  0  0  0  0  0  0  0  0
  134.8870  132.9330  147.3890 C   0  0  0  0  0  1  0  0  0  0  0  0
  134.3790  133.0470  148.7220 O   0  0  0  0  0  0  0  0  0  0  0  0
  138.9790  138.1300  151.3150 C   0  0  0  0  0  2  0  0  0  0  0  0
  139.6530  138.1130  152.6670 C   0  0  0  0  0  0  0  0  0  0  0  0
  138.8830  138.1550  153.8330 C   0  0  0  0  0  3  0  0  0  0  0  0
  139.4960  138.1220  155.0870 C   0  0  0  0  0  3  0  0  0  0  0  0
  140.8900  138.0580  155.1940 C   0  0  0  0  0  0  0  0  0  0  0  0
  141.6840  138.0360  154.0420 C   0  0  0  0  0  0  0  0  0  0  0  0
  141.0520  138.0640  152.7860 C   0  0  0  0  0  3  0  0  0  0  0  0
  141.4380  138.0200  156.4460 O   0  0  0  0  0  0  0  0  0  0  0  0
  141.2160  137.3240  157.0330 H   0  0  0  0  0  0  0  0  0  0  0  0
  143.0500  137.9810  153.9530 O   0  0  0  0  0  0  0  0  0  0  0  0
  143.6250  137.3630  152.8100 C   0  0  0  0  0  1  0  0  0  0  0  0
  1  2  1  1  0  0  0
  1  9  1  0  0  0  0
  3  1  1  0  0  0  0
  3  4  1  0  0  0  0
  4  8  1  0  0  0  0
  5  4  1  0  0  0  0
  5  7  1  0  0  0  0
  6  5  2  0  0  0  0
  7 16  1  0  0  0  0
  7 11  1  0  0  0  0
  9  8  1  0  0  0  0
  9 10  1  1  0  0  0
 12  1  1  0  0  0  0
 13 12  2  0  0  0  0
 14 15  1  0  0  0  0
 15 12  1  0  0  0  0
 16 17  1  0  0  0  0
 17 22  2  0  0  0  0
 17 18  1  0  0  0  0
 18 19  2  0  0  0  0
 19 20  1  0  0  0  0
 20 23  1  0  0  0  0
 21 20  2  0  0  0  0
 22 21  1  0  0  0  0
 23 24  1  0  0  0  0
 25 21  1  0  0  0  0
 26 25  1  0  0  0  0
M  END
>  <MODEL>
8

>  <REMARK>
 VINA RESULT:    -6.605      3.006      4.277
 INTER + INTRA:          -9.289
 INTER:                  -8.819
 INTRA:                  -0.470
 UNBOUND:                -0.560
  Name = CHEMBL5009086
  10 active torsions:
  status: ('A' for Active; 'I' for Inactive)
    1  A    between atoms: C_1  and  O_2
    2  A    between atoms: O_2  and  C_3
    3  A    between atoms: C_3  and  C_5
    4  A    between atoms: C_5  and  C_6
    5  A    between atoms: N_11  and  C_12
    6  A    between atoms: C_12  and  C_13
    7  A    between atoms: C_16  and  O_17
    8  A    between atoms: C_18  and  O_19
    9  A    between atoms: O_19  and  C_20
   10  A    between atoms: C_23  and  C_24
                            x       y       z     vdW  Elec       q    Type
                         _______ _______ _______ _____ _____    ______ ____

>  <TORSDO>
F 6

>  <SCORE>
-6.605

>  <RMSD_LB>
3.006

>  <RMSD_UB>
4.277

$$$$
CHEMBL5009086
 OpenBabel10172500303D

 26 27  0  0  1  0  0  0  0  0999 V2000
  140.1730  138.2410  151.7640 C   0  0  1  0  0  0  0  0  0  0  0  0
  139.5660  137.3370  150.6810 C   0  0  0  0  0  1  0  0  0  0  0  0
  141.4910  137.6570  152.3100 C   0  0  0  0  0  2  0  0  0  0  0  0
  142.5600  138.3100  151.5570 N   0  0  0  0  0  0  0  0  0  0  0  0
  143.8810  137.9830  151.7540 C   0  0  0  0  0  0  0  0  0  0  0  0
  144.2340  137.1270  152.5630 O   0  0  0  0  0  0  0  0  0  0  0  0
  144.7720  138.6910  150.9930 N   0  0  0  0  0  0  0  0  0  0  0  0
  142.0370  139.3450  150.6860 C   0  0  0  0  0  2  0  0  0  0  0  0
  140.6420  139.6220  151.2280 C   0  0  1  0  0  3  0  0  0  0  0  0
  139.7510  140.2940  150.1930 C   0  0  0  0  0  1  0  0  0  0  0  0
  144.4180  139.3680  150.3720 H   0  0  0  0  0  0  0  0  0  0  0  0
  139.1620  138.4280  152.8900 C   0  0  0  0  0  0  0  0  0  0  0  0
  139.1600  139.3730  153.6700 O   0  0  0  0  0  0  0  0  0  0  0  0
  137.5760  137.2720  154.1600 C   0  0  0  0  0  1  0  0  0  0  0  0
  138.2330  137.4300  152.8980 O   0  0  0  0  0  0  0  0  0  0  0  0
  146.2030  138.5000  151.0510 C   0  0  0  0  0  2  0  0  0  0  0  0
  146.8350  139.3870  152.0970 C   0  0  0  0  0  0  0  0  0  0  0  0
  147.0870  140.7330  151.8140 C   0  0  0  0  0  3  0  0  0  0  0  0
  147.6540  141.5650  152.7800 C   0  0  0  0  0  3  0  0  0  0  0  0
  147.9890  141.0600  154.0430 C   0  0  0  0  0  0  0  0  0  0  0  0
  147.7660  139.7120  154.3440 C   0  0  0  0  0  0  0  0  0  0  0  0
  147.1890  138.8890  153.3620 C   0  0  0  0  0  3  0  0  0  0  0  0
  148.5350  141.9210  154.9550 O   0  0  0  0  0  0  0  0  0  0  0  0
  149.4650  141.9780  155.0460 H   0  0  0  0  0  0  0  0  0  0  0  0
  148.0330  139.0480  155.5120 O   0  0  0  0  0  0  0  0  0  0  0  0
  148.0650  137.6280  155.4860 C   0  0  0  0  0  1  0  0  0  0  0  0
  1  2  1  6  0  0  0
  1  3  1  0  0  0  0
  1 12  1  0  0  0  0
  4  5  1  0  0  0  0
  4  3  1  0  0  0  0
  5  6  2  0  0  0  0
  7 16  1  0  0  0  0
  7  5  1  0  0  0  0
  8  9  1  0  0  0  0
  8  4  1  0  0  0  0
  9 10  1  6  0  0  0
  9  1  1  0  0  0  0
 11  7  1  0  0  0  0
 12 15  1  0  0  0  0
 12 13  2  0  0  0  0
 15 14  1  0  0  0  0
 16 17  1  0  0  0  0
 17 22  1  0  0  0  0
 18 17  2  0  0  0  0
 18 19  1  0  0  0  0
 19 20  2  0  0  0  0
 20 21  1  0  0  0  0
 20 23  1  0  0  0  0
 21 25  1  0  0  0  0
 22 21  2  0  0  0  0
 23 24  1  0  0  0  0
 26 25  1  0  0  0  0
M  END
>  <MODEL>
9

>  <REMARK>
 VINA RESULT:    -6.445      7.440     10.135
 INTER + INTRA:          -9.078
 INTER:                  -8.518
 INTRA:                  -0.560
 UNBOUND:                -0.560
  Name = CHEMBL5009086
  10 active torsions:
  status: ('A' for Active; 'I' for Inactive)
    1  A    between atoms: C_1  and  O_2
    2  A    between atoms: O_2  and  C_3
    3  A    between atoms: C_3  and  C_5
    4  A    between atoms: C_5  and  C_6
    5  A    between atoms: N_11  and  C_12
    6  A    between atoms: C_12  and  C_13
    7  A    between atoms: C_16  and  O_17
    8  A    between atoms: C_18  and  O_19
    9  A    between atoms: O_19  and  C_20
   10  A    between atoms: C_23  and  C_24
                            x       y       z     vdW  Elec       q    Type
                         _______ _______ _______ _____ _____    ______ ____

>  <TORSDO>
F 6

>  <SCORE>
-6.445

>  <RMSD_LB>
7.440

>  <RMSD_UB>
10.135

$$$$
