CHEMBL77292
 OpenBabel10172500433D

 24 25  0  0  0  0  0  0  0  0999 V2000
  138.8570  137.5300  155.2530 N   0  0  0  0  0  0  0  0  0  0  0  0
  139.4850  138.5450  154.5770 C   0  0  0  0  0  0  0  0  0  0  0  0
  138.9790  139.6350  154.3380 O   0  0  0  0  0  0  0  0  0  0  0  0
  139.3530  136.6960  155.4220 H   0  0  0  0  0  0  0  0  0  0  0  0
  140.8620  138.1960  154.1400 C   0  0  0  0  0  3  0  0  0  0  0  0
  141.1130  137.9050  152.8530 C   0  0  0  0  0  3  0  0  0  0  0  0
  142.4330  137.5190  152.3300 C   0  0  0  0  0  0  0  0  0  0  0  0
  143.5860  137.5240  153.1300 C   0  0  0  0  0  3  0  0  0  0  0  0
  144.8220  137.1250  152.6120 C   0  0  0  0  0  3  0  0  0  0  0  0
  144.9130  136.6990  151.2890 C   0  0  0  0  0  0  0  0  0  0  0  0
  146.7500  136.0990  150.5240 I   0  0  0  0  0  0  0  0  0  0  0  0
  143.7770  136.6670  150.4840 C   0  0  0  0  0  3  0  0  0  0  0  0
  142.5420  137.0700  151.0050 C   0  0  0  0  0  3  0  0  0  0  0  0
  137.4920  137.6390  155.7250 C   0  0  0  0  0  2  0  0  0  0  0  0
  134.8420  134.8810  155.5990 C   0  0  0  0  0  0  0  0  0  0  0  0
  135.7150  135.8690  156.0690 C   0  0  0  0  0  3  0  0  0  0  0  0
  136.5950  136.5410  155.2020 C   0  0  0  0  0  0  0  0  0  0  0  0
  136.5750  136.2150  153.8380 C   0  0  0  0  0  3  0  0  0  0  0  0
  135.7060  135.2330  153.3540 C   0  0  0  0  0  3  0  0  0  0  0  0
  134.8500  134.5710  154.2350 C   0  0  0  0  0  0  0  0  0  0  0  0
  133.8890  134.5410  157.7540 C   0  0  0  0  0  1  0  0  0  0  0  0
  133.9560  134.1860  156.3800 O   0  0  0  0  0  0  0  0  0  0  0  0
  133.9980  133.6070  153.7610 O   0  0  0  0  0  0  0  0  0  0  0  0
  133.1680  133.8510  153.4030 H   0  0  0  0  0  0  0  0  0  0  0  0
  1  4  1  0  0  0  0
  1 14  1  0  0  0  0
  2  1  1  0  0  0  0
  3  2  2  0  0  0  0
  5  2  1  0  0  0  0
  6  5  2  0  0  0  0
  7  6  1  0  0  0  0
  7  8  1  0  0  0  0
  9  8  2  0  0  0  0
 10  9  1  0  0  0  0
 11 10  1  0  0  0  0
 12 13  1  0  0  0  0
 12 10  2  0  0  0  0
 13  7  2  0  0  0  0
 15 16  1  0  0  0  0
 15 22  1  0  0  0  0
 17 14  1  0  0  0  0
 17 16  2  0  0  0  0
 18 17  1  0  0  0  0
 19 18  2  0  0  0  0
 19 20  1  0  0  0  0
 20 15  2  0  0  0  0
 22 21  1  0  0  0  0
 23 20  1  0  0  0  0
 24 23  1  0  0  0  0
M  END
>  <MODEL>
1

>  <REMARK>
 VINA RESULT:    -7.655      0.000      0.000
 INTER + INTRA:         -10.687
 INTER:                 -10.186
 INTRA:                  -0.500
 UNBOUND:                -0.571
  Name = CHEMBL77292
  7 active torsions:
  status: ('A' for Active; 'I' for Inactive)
    1  A    between atoms: C_1  and  O_2
    2  A    between atoms: O_2  and  C_3
    3  A    between atoms: C_5  and  C_6
    4  A    between atoms: C_6  and  N_7
    5  A    between atoms: C_8  and  C_10
    6  A    between atoms: C_11  and  C_12
    7  A    between atoms: C_21  and  O_22
                            x       y       z     vdW  Elec       q    Type
                         _______ _______ _______ _____ _____    ______ ____

>  <TORSDO>
F 6

>  <SCORE>
-7.655

>  <RMSD_LB>
0.000

>  <RMSD_UB>
0.000

$$$$
CHEMBL77292
 OpenBabel10172500433D

 24 25  0  0  0  0  0  0  0  0999 V2000
  138.3870  137.3820  154.9810 N   0  0  0  0  0  0  0  0  0  0  0  0
  138.8890  138.3870  154.1930 C   0  0  0  0  0  0  0  0  0  0  0  0
  138.7990  139.5810  154.4520 O   0  0  0  0  0  0  0  0  0  0  0  0
  138.5300  136.4480  154.7050 H   0  0  0  0  0  0  0  0  0  0  0  0
  139.5580  137.8890  152.9630 C   0  0  0  0  0  3  0  0  0  0  0  0
  140.8990  137.8390  152.8920 C   0  0  0  0  0  3  0  0  0  0  0  0
  141.6530  137.3910  151.7100 C   0  0  0  0  0  0  0  0  0  0  0  0
  143.0430  137.2040  151.7360 C   0  0  0  0  0  3  0  0  0  0  0  0
  143.7280  136.7500  150.6040 C   0  0  0  0  0  3  0  0  0  0  0  0
  143.0240  136.4620  149.4370 C   0  0  0  0  0  0  0  0  0  0  0  0
  144.0430  135.7810  147.7610 I   0  0  0  0  0  0  0  0  0  0  0  0
  141.6410  136.6220  149.3970 C   0  0  0  0  0  3  0  0  0  0  0  0
  140.9590  137.0800  150.5310 C   0  0  0  0  0  3  0  0  0  0  0  0
  137.6530  137.6460  156.2020 C   0  0  0  0  0  2  0  0  0  0  0  0
  134.7840  135.1820  155.6190 C   0  0  0  0  0  0  0  0  0  0  0  0
  135.7710  136.1510  155.4070 C   0  0  0  0  0  3  0  0  0  0  0  0
  136.5600  136.6360  156.4660 C   0  0  0  0  0  0  0  0  0  0  0  0
  136.3540  136.1160  157.7510 C   0  0  0  0  0  3  0  0  0  0  0  0
  135.3750  135.1440  157.9770 C   0  0  0  0  0  3  0  0  0  0  0  0
  134.5960  134.6870  156.9140 C   0  0  0  0  0  0  0  0  0  0  0  0
  134.6150  133.9330  153.5990 C   0  0  0  0  0  1  0  0  0  0  0  0
  133.9790  134.6600  154.6410 O   0  0  0  0  0  0  0  0  0  0  0  0
  133.6340  133.7350  157.1350 O   0  0  0  0  0  0  0  0  0  0  0  0
  132.9320  133.9090  157.7300 H   0  0  0  0  0  0  0  0  0  0  0  0
  1 14  1  0  0  0  0
  2  3  2  0  0  0  0
  2  1  1  0  0  0  0
  4  1  1  0  0  0  0
  5  2  1  0  0  0  0
  6  5  2  0  0  0  0
  7  8  1  0  0  0  0
  7  6  1  0  0  0  0
  9  8  2  0  0  0  0
 10  9  1  0  0  0  0
 11 10  1  0  0  0  0
 12 10  2  0  0  0  0
 12 13  1  0  0  0  0
 13  7  2  0  0  0  0
 14 17  1  0  0  0  0
 15 20  1  0  0  0  0
 16 15  2  0  0  0  0
 16 17  1  0  0  0  0
 17 18  2  0  0  0  0
 18 19  1  0  0  0  0
 20 23  1  0  0  0  0
 20 19  2  0  0  0  0
 21 22  1  0  0  0  0
 22 15  1  0  0  0  0
 23 24  1  0  0  0  0
M  END
>  <MODEL>
2

>  <REMARK>
 VINA RESULT:    -7.373      1.372      2.364
 INTER + INTRA:         -10.315
 INTER:                  -9.843
 INTRA:                  -0.472
 UNBOUND:                -0.571
  Name = CHEMBL77292
  7 active torsions:
  status: ('A' for Active; 'I' for Inactive)
    1  A    between atoms: C_1  and  O_2
    2  A    between atoms: O_2  and  C_3
    3  A    between atoms: C_5  and  C_6
    4  A    between atoms: C_6  and  N_7
    5  A    between atoms: C_8  and  C_10
    6  A    between atoms: C_11  and  C_12
    7  A    between atoms: C_21  and  O_22
                            x       y       z     vdW  Elec       q    Type
                         _______ _______ _______ _____ _____    ______ ____

>  <TORSDO>
F 6

>  <SCORE>
-7.373

>  <RMSD_LB>
1.372

>  <RMSD_UB>
2.364

$$$$
CHEMBL77292
 OpenBabel10172500433D

 24 25  0  0  0  0  0  0  0  0999 V2000
  135.0240  134.8840  152.0910 N   0  0  0  0  0  0  0  0  0  0  0  0
  135.1580  135.8620  153.0430 C   0  0  0  0  0  0  0  0  0  0  0  0
  134.2260  136.3510  153.6700 O   0  0  0  0  0  0  0  0  0  0  0  0
  135.8350  134.5320  151.6570 H   0  0  0  0  0  0  0  0  0  0  0  0
  136.5650  136.2960  153.2460 C   0  0  0  0  0  3  0  0  0  0  0  0
  137.1690  137.0860  152.3420 C   0  0  0  0  0  3  0  0  0  0  0  0
  138.5650  137.5420  152.4380 C   0  0  0  0  0  0  0  0  0  0  0  0
  139.0880  138.1070  153.6120 C   0  0  0  0  0  3  0  0  0  0  0  0
  140.4270  138.5050  153.6820 C   0  0  0  0  0  3  0  0  0  0  0  0
  141.2620  138.3270  152.5810 C   0  0  0  0  0  0  0  0  0  0  0  0
  143.2510  138.9130  152.6910 I   0  0  0  0  0  0  0  0  0  0  0  0
  140.7670  137.7500  151.4140 C   0  0  0  0  0  3  0  0  0  0  0  0
  139.4250  137.3550  151.3460 C   0  0  0  0  0  3  0  0  0  0  0  0
  133.7350  134.3510  151.7000 C   0  0  0  0  0  2  0  0  0  0  0  0
  133.2600  134.8260  147.9330 C   0  0  0  0  0  0  0  0  0  0  0  0
  133.3070  135.0680  149.3110 C   0  0  0  0  0  3  0  0  0  0  0  0
  133.6420  134.0510  150.2220 C   0  0  0  0  0  0  0  0  0  0  0  0
  133.9490  132.7760  149.7250 C   0  0  0  0  0  3  0  0  0  0  0  0
  133.9100  132.5210  148.3510 C   0  0  0  0  0  3  0  0  0  0  0  0
  133.5640  133.5420  147.4660 C   0  0  0  0  0  0  0  0  0  0  0  0
  132.5190  137.0360  147.4510 C   0  0  0  0  0  1  0  0  0  0  0  0
  132.9450  135.7630  146.9850 O   0  0  0  0  0  0  0  0  0  0  0  0
  133.5240  133.2910  146.1190 O   0  0  0  0  0  0  0  0  0  0  0  0
  134.0730  133.7770  145.5360 H   0  0  0  0  0  0  0  0  0  0  0  0
  1  2  1  0  0  0  0
  2  5  1  0  0  0  0
  2  3  2  0  0  0  0
  4  1  1  0  0  0  0
  6  7  1  0  0  0  0
  6  5  2  0  0  0  0
  7  8  1  0  0  0  0
  8  9  2  0  0  0  0
 10 11  1  0  0  0  0
 10  9  1  0  0  0  0
 12 10  2  0  0  0  0
 13 12  1  0  0  0  0
 13  7  2  0  0  0  0
 14  1  1  0  0  0  0
 15 16  1  0  0  0  0
 16 17  2  0  0  0  0
 17 14  1  0  0  0  0
 18 17  1  0  0  0  0
 19 18  2  0  0  0  0
 20 15  2  0  0  0  0
 20 19  1  0  0  0  0
 22 21  1  0  0  0  0
 22 15  1  0  0  0  0
 23 20  1  0  0  0  0
 24 23  1  0  0  0  0
M  END
>  <MODEL>
3

>  <REMARK>
 VINA RESULT:    -7.345      4.390      6.155
 INTER + INTRA:         -10.277
 INTER:                  -9.797
 INTRA:                  -0.480
 UNBOUND:                -0.571
  Name = CHEMBL77292
  7 active torsions:
  status: ('A' for Active; 'I' for Inactive)
    1  A    between atoms: C_1  and  O_2
    2  A    between atoms: O_2  and  C_3
    3  A    between atoms: C_5  and  C_6
    4  A    between atoms: C_6  and  N_7
    5  A    between atoms: C_8  and  C_10
    6  A    between atoms: C_11  and  C_12
    7  A    between atoms: C_21  and  O_22
                            x       y       z     vdW  Elec       q    Type
                         _______ _______ _______ _____ _____    ______ ____

>  <TORSDO>
F 6

>  <SCORE>
-7.345

>  <RMSD_LB>
4.390

>  <RMSD_UB>
6.155

$$$$
CHEMBL77292
 OpenBabel10172500433D

 24 25  0  0  0  0  0  0  0  0999 V2000
  143.3160  139.3370  152.5870 N   0  0  0  0  0  0  0  0  0  0  0  0
  142.1300  138.9300  152.0300 C   0  0  0  0  0  0  0  0  0  0  0  0
  141.7930  139.1560  150.8740 O   0  0  0  0  0  0  0  0  0  0  0  0
  143.5120  139.0860  153.5190 H   0  0  0  0  0  0  0  0  0  0  0  0
  141.2630  138.1820  152.9780 C   0  0  0  0  0  3  0  0  0  0  0  0
  140.2380  138.7980  153.5910 C   0  0  0  0  0  3  0  0  0  0  0  0
  139.3440  138.1530  154.5650 C   0  0  0  0  0  0  0  0  0  0  0  0
  138.0380  137.7560  154.2350 C   0  0  0  0  0  3  0  0  0  0  0  0
  137.2220  137.1190  155.1760 C   0  0  0  0  0  3  0  0  0  0  0  0
  137.7110  136.8570  156.4530 C   0  0  0  0  0  0  0  0  0  0  0  0
  136.4980  135.9040  157.8450 I   0  0  0  0  0  0  0  0  0  0  0  0
  139.0110  137.2240  156.7940 C   0  0  0  0  0  3  0  0  0  0  0  0
  139.8240  137.8640  155.8510 C   0  0  0  0  0  3  0  0  0  0  0  0
  144.2880  140.1230  151.8550 C   0  0  0  0  0  2  0  0  0  0  0  0
  147.3360  139.8520  154.1520 C   0  0  0  0  0  0  0  0  0  0  0  0
  146.1950  139.5280  153.4100 C   0  0  0  0  0  3  0  0  0  0  0  0
  145.4870  140.5080  152.6900 C   0  0  0  0  0  0  0  0  0  0  0  0
  145.9570  141.8290  152.7120 C   0  0  0  0  0  3  0  0  0  0  0  0
  147.0970  142.1660  153.4460 C   0  0  0  0  0  3  0  0  0  0  0  0
  147.7760  141.1800  154.1630 C   0  0  0  0  0  0  0  0  0  0  0  0
  147.4640  138.3870  156.0240 C   0  0  0  0  0  1  0  0  0  0  0  0
  148.0780  138.9560  154.8760 O   0  0  0  0  0  0  0  0  0  0  0  0
  148.8930  141.5110  154.8840 O   0  0  0  0  0  0  0  0  0  0  0  0
  149.6510  140.9610  154.8520 H   0  0  0  0  0  0  0  0  0  0  0  0
  1  4  1  0  0  0  0
  2  1  1  0  0  0  0
  2  5  1  0  0  0  0
  3  2  2  0  0  0  0
  5  6  2  0  0  0  0
  6  7  1  0  0  0  0
  7 13  1  0  0  0  0
  8  7  2  0  0  0  0
  8  9  1  0  0  0  0
  9 10  2  0  0  0  0
 10 12  1  0  0  0  0
 10 11  1  0  0  0  0
 13 12  2  0  0  0  0
 14  1  1  0  0  0  0
 14 17  1  0  0  0  0
 15 20  1  0  0  0  0
 15 22  1  0  0  0  0
 16 15  2  0  0  0  0
 17 18  2  0  0  0  0
 17 16  1  0  0  0  0
 18 19  1  0  0  0  0
 19 20  2  0  0  0  0
 20 23  1  0  0  0  0
 22 21  1  0  0  0  0
 24 23  1  0  0  0  0
M  END
>  <MODEL>
4

>  <REMARK>
 VINA RESULT:    -7.155      5.028     10.031
 INTER + INTRA:         -10.026
 INTER:                  -9.585
 INTRA:                  -0.440
 UNBOUND:                -0.571
  Name = CHEMBL77292
  7 active torsions:
  status: ('A' for Active; 'I' for Inactive)
    1  A    between atoms: C_1  and  O_2
    2  A    between atoms: O_2  and  C_3
    3  A    between atoms: C_5  and  C_6
    4  A    between atoms: C_6  and  N_7
    5  A    between atoms: C_8  and  C_10
    6  A    between atoms: C_11  and  C_12
    7  A    between atoms: C_21  and  O_22
                            x       y       z     vdW  Elec       q    Type
                         _______ _______ _______ _____ _____    ______ ____

>  <TORSDO>
F 6

>  <SCORE>
-7.155

>  <RMSD_LB>
5.028

>  <RMSD_UB>
10.031

$$$$
CHEMBL77292
 OpenBabel10172500433D

 24 25  0  0  0  0  0  0  0  0999 V2000
  133.8210  134.4260  147.9850 N   0  0  0  0  0  0  0  0  0  0  0  0
  134.2640  133.2850  147.3650 C   0  0  0  0  0  0  0  0  0  0  0  0
  134.1790  132.1600  147.8410 O   0  0  0  0  0  0  0  0  0  0  0  0
  133.9080  135.2860  147.5130 H   0  0  0  0  0  0  0  0  0  0  0  0
  134.8820  133.5410  146.0370 C   0  0  0  0  0  3  0  0  0  0  0  0
  135.6460  132.6040  145.4520 C   0  0  0  0  0  3  0  0  0  0  0  0
  136.3230  132.7740  144.1570 C   0  0  0  0  0  0  0  0  0  0  0  0
  136.3680  134.0090  143.4920 C   0  0  0  0  0  3  0  0  0  0  0  0
  137.0440  134.1450  142.2750 C   0  0  0  0  0  3  0  0  0  0  0  0
  137.6990  133.0490  141.7190 C   0  0  0  0  0  0  0  0  0  0  0  0
  138.7080  133.2570  139.9160 I   0  0  0  0  0  0  0  0  0  0  0  0
  137.6840  131.8190  142.3740 C   0  0  0  0  0  3  0  0  0  0  0  0
  137.0030  131.6850  143.5900 C   0  0  0  0  0  3  0  0  0  0  0  0
  133.2310  134.4120  149.3080 C   0  0  0  0  0  2  0  0  0  0  0  0
  134.3850  135.9740  152.6050 C   0  0  0  0  0  0  0  0  0  0  0  0
  133.5790  135.4250  151.6020 C   0  0  0  0  0  3  0  0  0  0  0  0
  134.1130  135.0490  150.3570 C   0  0  0  0  0  0  0  0  0  0  0  0
  135.4880  135.2190  150.1360 C   0  0  0  0  0  3  0  0  0  0  0  0
  136.3060  135.7630  151.1290 C   0  0  0  0  0  3  0  0  0  0  0  0
  135.7510  136.1400  152.3530 C   0  0  0  0  0  0  0  0  0  0  0  0
  133.7060  135.3350  154.7960 C   0  0  0  0  0  1  0  0  0  0  0  0
  133.9390  136.3620  153.8410 O   0  0  0  0  0  0  0  0  0  0  0  0
  136.5530  136.6750  153.3280 O   0  0  0  0  0  0  0  0  0  0  0  0
  137.4810  136.5520  153.2910 H   0  0  0  0  0  0  0  0  0  0  0  0
  1 14  1  0  0  0  0
  2  3  2  0  0  0  0
  2  1  1  0  0  0  0
  4  1  1  0  0  0  0
  5  2  1  0  0  0  0
  6  5  2  0  0  0  0
  7  6  1  0  0  0  0
  8  7  2  0  0  0  0
  9  8  1  0  0  0  0
 10  9  2  0  0  0  0
 10 12  1  0  0  0  0
 11 10  1  0  0  0  0
 12 13  2  0  0  0  0
 13  7  1  0  0  0  0
 14 17  1  0  0  0  0
 15 22  1  0  0  0  0
 16 15  2  0  0  0  0
 17 16  1  0  0  0  0
 18 17  2  0  0  0  0
 18 19  1  0  0  0  0
 19 20  2  0  0  0  0
 20 15  1  0  0  0  0
 20 23  1  0  0  0  0
 22 21  1  0  0  0  0
 24 23  1  0  0  0  0
M  END
>  <MODEL>
5

>  <REMARK>
 VINA RESULT:    -7.058      7.487      9.038
 INTER + INTRA:          -9.898
 INTER:                  -9.435
 INTRA:                  -0.463
 UNBOUND:                -0.571
  Name = CHEMBL77292
  7 active torsions:
  status: ('A' for Active; 'I' for Inactive)
    1  A    between atoms: C_1  and  O_2
    2  A    between atoms: O_2  and  C_3
    3  A    between atoms: C_5  and  C_6
    4  A    between atoms: C_6  and  N_7
    5  A    between atoms: C_8  and  C_10
    6  A    between atoms: C_11  and  C_12
    7  A    between atoms: C_21  and  O_22
                            x       y       z     vdW  Elec       q    Type
                         _______ _______ _______ _____ _____    ______ ____

>  <TORSDO>
F 6

>  <SCORE>
-7.058

>  <RMSD_LB>
7.487

>  <RMSD_UB>
9.038

$$$$
CHEMBL77292
 OpenBabel10172500433D

 24 25  0  0  0  0  0  0  0  0999 V2000
  136.5150  136.5380  151.2960 N   0  0  0  0  0  0  0  0  0  0  0  0
  137.5080  137.1740  151.9980 C   0  0  0  0  0  0  0  0  0  0  0  0
  138.4140  137.8210  151.4850 O   0  0  0  0  0  0  0  0  0  0  0  0
  135.8120  136.0630  151.7970 H   0  0  0  0  0  0  0  0  0  0  0  0
  137.3940  136.9960  153.4690 C   0  0  0  0  0  3  0  0  0  0  0  0
  136.5610  136.0720  153.9790 C   0  0  0  0  0  3  0  0  0  0  0  0
  136.3570  135.8410  155.4180 C   0  0  0  0  0  0  0  0  0  0  0  0
  137.2270  136.3590  156.3900 C   0  0  0  0  0  3  0  0  0  0  0  0
  136.9900  136.1460  157.7520 C   0  0  0  0  0  3  0  0  0  0  0  0
  135.8680  135.4270  158.1560 C   0  0  0  0  0  0  0  0  0  0  0  0
  135.5150  135.1190  160.1800 I   0  0  0  0  0  0  0  0  0  0  0  0
  134.9810  134.9220  157.2070 C   0  0  0  0  0  3  0  0  0  0  0  0
  135.2230  135.1340  155.8450 C   0  0  0  0  0  3  0  0  0  0  0  0
  136.4630  136.5410  149.8490 C   0  0  0  0  0  2  0  0  0  0  0  0
  133.2380  135.7890  147.9310 C   0  0  0  0  0  0  0  0  0  0  0  0
  134.3280  136.4650  148.4900 C   0  0  0  0  0  3  0  0  0  0  0  0
  135.2670  135.7990  149.2980 C   0  0  0  0  0  0  0  0  0  0  0  0
  135.1030  134.4250  149.5260 C   0  0  0  0  0  3  0  0  0  0  0  0
  134.0220  133.7360  148.9720 C   0  0  0  0  0  3  0  0  0  0  0  0
  133.0960  134.4200  148.1830 C   0  0  0  0  0  0  0  0  0  0  0  0
  132.7450  137.1610  146.0490 C   0  0  0  0  0  1  0  0  0  0  0  0
  132.2850  136.3660  147.1340 O   0  0  0  0  0  0  0  0  0  0  0  0
  132.0340  133.7440  147.6390 O   0  0  0  0  0  0  0  0  0  0  0  0
  132.0020  133.5870  146.7170 H   0  0  0  0  0  0  0  0  0  0  0  0
  1  4  1  0  0  0  0
  1  2  1  0  0  0  0
  2  5  1  0  0  0  0
  3  2  2  0  0  0  0
  5  6  2  0  0  0  0
  6  7  1  0  0  0  0
  7 13  2  0  0  0  0
  7  8  1  0  0  0  0
  8  9  2  0  0  0  0
  9 10  1  0  0  0  0
 10 11  1  0  0  0  0
 12 10  2  0  0  0  0
 13 12  1  0  0  0  0
 14  1  1  0  0  0  0
 15 20  2  0  0  0  0
 15 16  1  0  0  0  0
 16 17  2  0  0  0  0
 17 18  1  0  0  0  0
 17 14  1  0  0  0  0
 19 18  2  0  0  0  0
 20 19  1  0  0  0  0
 21 22  1  0  0  0  0
 22 15  1  0  0  0  0
 23 20  1  0  0  0  0
 24 23  1  0  0  0  0
M  END
>  <MODEL>
6

>  <REMARK>
 VINA RESULT:    -6.999      5.392      7.968
 INTER + INTRA:          -9.821
 INTER:                  -9.325
 INTRA:                  -0.496
 UNBOUND:                -0.571
  Name = CHEMBL77292
  7 active torsions:
  status: ('A' for Active; 'I' for Inactive)
    1  A    between atoms: C_1  and  O_2
    2  A    between atoms: O_2  and  C_3
    3  A    between atoms: C_5  and  C_6
    4  A    between atoms: C_6  and  N_7
    5  A    between atoms: C_8  and  C_10
    6  A    between atoms: C_11  and  C_12
    7  A    between atoms: C_21  and  O_22
                            x       y       z     vdW  Elec       q    Type
                         _______ _______ _______ _____ _____    ______ ____

>  <TORSDO>
F 6

>  <SCORE>
-6.999

>  <RMSD_LB>
5.392

>  <RMSD_UB>
7.968

$$$$
CHEMBL77292
 OpenBabel10172500433D

 24 25  0  0  0  0  0  0  0  0999 V2000
  136.1980  133.7390  146.2210 N   0  0  0  0  0  0  0  0  0  0  0  0
  136.2050  132.8200  145.2030 C   0  0  0  0  0  0  0  0  0  0  0  0
  135.7830  131.6740  145.3010 O   0  0  0  0  0  0  0  0  0  0  0  0
  136.5340  134.6480  146.0420 H   0  0  0  0  0  0  0  0  0  0  0  0
  136.7920  133.3450  143.9420 C   0  0  0  0  0  3  0  0  0  0  0  0
  136.6940  132.6400  142.8030 C   0  0  0  0  0  3  0  0  0  0  0  0
  137.2670  133.0600  141.5140 C   0  0  0  0  0  0  0  0  0  0  0  0
  138.4490  132.5020  141.0030 C   0  0  0  0  0  3  0  0  0  0  0  0
  138.9540  132.9010  139.7610 C   0  0  0  0  0  3  0  0  0  0  0  0
  138.2690  133.8530  139.0090 C   0  0  0  0  0  0  0  0  0  0  0  0
  139.0180  134.4390  137.1620 I   0  0  0  0  0  0  0  0  0  0  0  0
  137.0840  134.4050  139.4890 C   0  0  0  0  0  3  0  0  0  0  0  0
  136.5830  134.0050  140.7340 C   0  0  0  0  0  3  0  0  0  0  0  0
  135.7160  133.4230  147.5500 C   0  0  0  0  0  2  0  0  0  0  0  0
  133.9080  135.7670  149.9750 C   0  0  0  0  0  0  0  0  0  0  0  0
  134.7590  134.7830  149.4590 C   0  0  0  0  0  3  0  0  0  0  0  0
  134.7530  134.4540  148.0910 C   0  0  0  0  0  0  0  0  0  0  0  0
  133.8830  135.1460  147.2360 C   0  0  0  0  0  3  0  0  0  0  0  0
  133.0310  136.1340  147.7370 C   0  0  0  0  0  3  0  0  0  0  0  0
  133.0460  136.4360  149.0990 C   0  0  0  0  0  0  0  0  0  0  0  0
  133.5660  135.1300  152.2430 C   0  0  0  0  0  1  0  0  0  0  0  0
  133.8570  136.1440  151.2910 O   0  0  0  0  0  0  0  0  0  0  0  0
  132.2090  137.4040  149.5910 O   0  0  0  0  0  0  0  0  0  0  0  0
  131.3630  137.5290  149.2100 H   0  0  0  0  0  0  0  0  0  0  0  0
  1 14  1  0  0  0  0
  2  3  2  0  0  0  0
  2  1  1  0  0  0  0
  4  1  1  0  0  0  0
  5  2  1  0  0  0  0
  6  5  2  0  0  0  0
  7  6  1  0  0  0  0
  8  7  1  0  0  0  0
  9  8  2  0  0  0  0
 10 12  2  0  0  0  0
 10  9  1  0  0  0  0
 11 10  1  0  0  0  0
 12 13  1  0  0  0  0
 13  7  2  0  0  0  0
 14 17  1  0  0  0  0
 15 22  1  0  0  0  0
 16 15  1  0  0  0  0
 17 16  2  0  0  0  0
 18 19  2  0  0  0  0
 18 17  1  0  0  0  0
 19 20  1  0  0  0  0
 20 23  1  0  0  0  0
 20 15  2  0  0  0  0
 22 21  1  0  0  0  0
 24 23  1  0  0  0  0
M  END
>  <MODEL>
7

>  <REMARK>
 VINA RESULT:    -6.968      9.237     10.601
 INTER + INTRA:          -9.779
 INTER:                  -9.339
 INTRA:                  -0.440
 UNBOUND:                -0.571
  Name = CHEMBL77292
  7 active torsions:
  status: ('A' for Active; 'I' for Inactive)
    1  A    between atoms: C_1  and  O_2
    2  A    between atoms: O_2  and  C_3
    3  A    between atoms: C_5  and  C_6
    4  A    between atoms: C_6  and  N_7
    5  A    between atoms: C_8  and  C_10
    6  A    between atoms: C_11  and  C_12
    7  A    between atoms: C_21  and  O_22
                            x       y       z     vdW  Elec       q    Type
                         _______ _______ _______ _____ _____    ______ ____

>  <TORSDO>
F 6

>  <SCORE>
-6.968

>  <RMSD_LB>
9.237

>  <RMSD_UB>
10.601

$$$$
CHEMBL77292
 OpenBabel10172500433D

 24 25  0  0  0  0  0  0  0  0999 V2000
  138.2100  136.2110  149.9700 N   0  0  0  0  0  0  0  0  0  0  0  0
  138.7210  137.4760  150.1200 C   0  0  0  0  0  0  0  0  0  0  0  0
  138.0680  138.5060  150.0040 O   0  0  0  0  0  0  0  0  0  0  0  0
  138.8060  135.4400  150.1080 H   0  0  0  0  0  0  0  0  0  0  0  0
  140.1740  137.4880  150.4300 C   0  0  0  0  0  3  0  0  0  0  0  0
  140.5970  137.4340  151.7050 C   0  0  0  0  0  3  0  0  0  0  0  0
  142.0100  137.4710  152.1140 C   0  0  0  0  0  0  0  0  0  0  0  0
  142.4020  137.7980  153.4220 C   0  0  0  0  0  3  0  0  0  0  0  0
  143.7510  137.7960  153.7880 C   0  0  0  0  0  3  0  0  0  0  0  0
  144.7230  137.4500  152.8530 C   0  0  0  0  0  0  0  0  0  0  0  0
  146.7260  137.4420  153.4030 I   0  0  0  0  0  0  0  0  0  0  0  0
  144.3540  137.1030  151.5550 C   0  0  0  0  0  3  0  0  0  0  0  0
  143.0020  137.1090  151.1910 C   0  0  0  0  0  3  0  0  0  0  0  0
  136.8250  135.9700  149.6160 C   0  0  0  0  0  2  0  0  0  0  0  0
  135.2270  135.7750  153.0880 C   0  0  0  0  0  0  0  0  0  0  0  0
  136.0240  136.1750  152.0090 C   0  0  0  0  0  3  0  0  0  0  0  0
  135.9920  135.4890  150.7820 C   0  0  0  0  0  0  0  0  0  0  0  0
  135.1260  134.3940  150.6450 C   0  0  0  0  0  3  0  0  0  0  0  0
  134.3210  133.9870  151.7120 C   0  0  0  0  0  3  0  0  0  0  0  0
  134.3790  134.6750  152.9250 C   0  0  0  0  0  0  0  0  0  0  0  0
  136.2720  136.1070  155.2010 C   0  0  0  0  0  1  0  0  0  0  0  0
  135.2010  136.3920  154.3110 O   0  0  0  0  0  0  0  0  0  0  0  0
  133.5910  134.2750  153.9720 O   0  0  0  0  0  0  0  0  0  0  0  0
  132.8800  134.8150  154.2570 H   0  0  0  0  0  0  0  0  0  0  0  0
  1  4  1  0  0  0  0
  1  2  1  0  0  0  0
  2  5  1  0  0  0  0
  3  2  2  0  0  0  0
  5  6  2  0  0  0  0
  6  7  1  0  0  0  0
  7  8  1  0  0  0  0
  8  9  2  0  0  0  0
 10 11  1  0  0  0  0
 10  9  1  0  0  0  0
 12 10  2  0  0  0  0
 13 12  1  0  0  0  0
 13  7  2  0  0  0  0
 14  1  1  0  0  0  0
 14 17  1  0  0  0  0
 15 22  1  0  0  0  0
 16 15  2  0  0  0  0
 17 16  1  0  0  0  0
 18 17  2  0  0  0  0
 18 19  1  0  0  0  0
 19 20  2  0  0  0  0
 20 15  1  0  0  0  0
 20 23  1  0  0  0  0
 22 21  1  0  0  0  0
 23 24  1  0  0  0  0
M  END
>  <MODEL>
8

>  <REMARK>
 VINA RESULT:    -6.862      2.506      3.331
 INTER + INTRA:          -9.639
 INTER:                  -9.100
 INTRA:                  -0.539
 UNBOUND:                -0.571
  Name = CHEMBL77292
  7 active torsions:
  status: ('A' for Active; 'I' for Inactive)
    1  A    between atoms: C_1  and  O_2
    2  A    between atoms: O_2  and  C_3
    3  A    between atoms: C_5  and  C_6
    4  A    between atoms: C_6  and  N_7
    5  A    between atoms: C_8  and  C_10
    6  A    between atoms: C_11  and  C_12
    7  A    between atoms: C_21  and  O_22
                            x       y       z     vdW  Elec       q    Type
                         _______ _______ _______ _____ _____    ______ ____

>  <TORSDO>
F 6

>  <SCORE>
-6.862

>  <RMSD_LB>
2.506

>  <RMSD_UB>
3.331

$$$$
CHEMBL77292
 OpenBabel10172500433D

 24 25  0  0  0  0  0  0  0  0999 V2000
  135.5140  133.1840  146.2340 N   0  0  0  0  0  0  0  0  0  0  0  0
  136.8810  133.1980  146.1080 C   0  0  0  0  0  0  0  0  0  0  0  0
  137.6630  132.9480  147.0170 O   0  0  0  0  0  0  0  0  0  0  0  0
  134.9640  133.3730  145.4390 H   0  0  0  0  0  0  0  0  0  0  0  0
  137.3410  133.5640  144.7430 C   0  0  0  0  0  3  0  0  0  0  0  0
  136.6790  133.1190  143.6620 C   0  0  0  0  0  3  0  0  0  0  0  0
  137.0730  133.4010  142.2720 C   0  0  0  0  0  0  0  0  0  0  0  0
  136.5700  134.5010  141.5600 C   0  0  0  0  0  3  0  0  0  0  0  0
  136.9850  134.7590  140.2500 C   0  0  0  0  0  3  0  0  0  0  0  0
  137.9230  133.9260  139.6430 C   0  0  0  0  0  0  0  0  0  0  0  0
  138.5430  134.3160  137.6990 I   0  0  0  0  0  0  0  0  0  0  0  0
  138.4490  132.8410  140.3400 C   0  0  0  0  0  3  0  0  0  0  0  0
  138.0290  132.5840  141.6500 C   0  0  0  0  0  3  0  0  0  0  0  0
  134.8530  132.9020  147.4920 C   0  0  0  0  0  2  0  0  0  0  0  0
  133.1250  136.3030  147.7980 C   0  0  0  0  0  0  0  0  0  0  0  0
  133.7900  135.1890  147.2720 C   0  0  0  0  0  3  0  0  0  0  0  0
  134.1810  134.1150  148.0920 C   0  0  0  0  0  0  0  0  0  0  0  0
  133.8760  134.1670  149.4600 C   0  0  0  0  0  3  0  0  0  0  0  0
  133.2090  135.2710  149.9980 C   0  0  0  0  0  3  0  0  0  0  0  0
  132.8420  136.3300  149.1680 C   0  0  0  0  0  0  0  0  0  0  0  0
  133.5190  137.7610  145.9580 C   0  0  0  0  0  1  0  0  0  0  0  0
  132.7120  137.3840  147.0660 O   0  0  0  0  0  0  0  0  0  0  0  0
  132.1890  137.4140  149.6960 O   0  0  0  0  0  0  0  0  0  0  0  0
  131.4580  137.7860  149.2440 H   0  0  0  0  0  0  0  0  0  0  0  0
  1 14  1  0  0  0  0
  2  1  1  0  0  0  0
  2  3  2  0  0  0  0
  4  1  1  0  0  0  0
  5  2  1  0  0  0  0
  6  5  2  0  0  0  0
  7  6  1  0  0  0  0
  8  7  2  0  0  0  0
  9  8  1  0  0  0  0
 10  9  2  0  0  0  0
 10 12  1  0  0  0  0
 11 10  1  0  0  0  0
 12 13  2  0  0  0  0
 13  7  1  0  0  0  0
 14 17  1  0  0  0  0
 15 20  1  0  0  0  0
 16 15  2  0  0  0  0
 16 17  1  0  0  0  0
 17 18  2  0  0  0  0
 18 19  1  0  0  0  0
 20 23  1  0  0  0  0
 20 19  2  0  0  0  0
 21 22  1  0  0  0  0
 22 15  1  0  0  0  0
 24 23  1  0  0  0  0
M  END
>  <MODEL>
9

>  <REMARK>
 VINA RESULT:    -6.798      9.180     10.656
 INTER + INTRA:          -9.554
 INTER:                  -8.983
 INTRA:                  -0.571
 UNBOUND:                -0.571
  Name = CHEMBL77292
  7 active torsions:
  status: ('A' for Active; 'I' for Inactive)
    1  A    between atoms: C_1  and  O_2
    2  A    between atoms: O_2  and  C_3
    3  A    between atoms: C_5  and  C_6
    4  A    between atoms: C_6  and  N_7
    5  A    between atoms: C_8  and  C_10
    6  A    between atoms: C_11  and  C_12
    7  A    between atoms: C_21  and  O_22
                            x       y       z     vdW  Elec       q    Type
                         _______ _______ _______ _____ _____    ______ ____

>  <TORSDO>
F 6

>  <SCORE>
-6.798

>  <RMSD_LB>
9.180

>  <RMSD_UB>
10.656

$$$$
