CHEMBL42710
 OpenBabel10172500293D

 13 13  0  0  0  0  0  0  0  0999 V2000
  147.5030  142.2760  151.1770 C   0  0  0  0  0  0  0  0  0  0  0  0
  148.8740  142.2830  151.4490 C   0  0  0  0  0  3  0  0  0  0  0  0
  149.3420  141.9840  152.7290 C   0  0  0  0  0  3  0  0  0  0  0  0
  148.4440  141.6850  153.7590 C   0  0  0  0  0  0  0  0  0  0  0  0
  147.0650  141.6830  153.5140 C   0  0  0  0  0  0  0  0  0  0  0  0
  146.6120  141.9840  152.2220 C   0  0  0  0  0  3  0  0  0  0  0  0
  148.9540  141.4000  154.9940 O   0  0  0  0  0  0  0  0  0  0  0  0
  149.8520  141.5880  155.1850 H   0  0  0  0  0  0  0  0  0  0  0  0
  146.0460  141.4170  154.3900 O   0  0  0  0  0  0  0  0  0  0  0  0
  145.4060  140.1530  154.3070 C   0  0  0  0  0  1  0  0  0  0  0  0
  146.9950  142.5950  149.7920 C   0  0  0  0  0  2  0  0  0  0  0  0
  146.6750  140.1980  149.1140 C   0  0  0  0  0  2  0  0  0  0  0  0
  146.2310  141.4600  149.1740 C   0  0  0  0  0  3  0  0  0  0  0  0
  1  2  2  0  0  0  0
  1  6  1  0  0  0  0
  2  3  1  0  0  0  0
  3  4  2  0  0  0  0
  4  7  1  0  0  0  0
  5  4  1  0  0  0  0
  5  9  1  0  0  0  0
  6  5  2  0  0  0  0
  7  8  1  0  0  0  0
 10  9  1  0  0  0  0
 11  1  1  0  0  0  0
 12 13  2  0  0  0  0
 13 11  1  0  0  0  0
M  END
>  <MODEL>
1

>  <REMARK>
 VINA RESULT:    -5.384      0.000      0.000
 INTER + INTRA:          -6.691
 INTER:                  -6.460
 INTRA:                  -0.232
 UNBOUND:                -0.205
  Name = CHEMBL42710
  5 active torsions:
  status: ('A' for Active; 'I' for Inactive)
    1  A    between atoms: C_2  and  C_3
    2  A    between atoms: C_3  and  C_4
    3  A    between atoms: C_7  and  O_8
    4  A    between atoms: C_9  and  O_10
    5  A    between atoms: O_10  and  C_11
                            x       y       z     vdW  Elec       q    Type
                         _______ _______ _______ _____ _____    ______ ____

>  <TORSDO>
F 4

>  <SCORE>
-5.384

>  <RMSD_LB>
0.000

>  <RMSD_UB>
0.000

$$$$
CHEMBL42710
 OpenBabel10172500293D

 13 13  0  0  0  0  0  0  0  0999 V2000
  146.2840  141.6650  152.8500 C   0  0  0  0  0  0  0  0  0  0  0  0
  147.5720  141.9700  153.3010 C   0  0  0  0  0  3  0  0  0  0  0  0
  148.2130  141.1390  154.2190 C   0  0  0  0  0  3  0  0  0  0  0  0
  147.5710  139.9960  154.7090 C   0  0  0  0  0  0  0  0  0  0  0  0
  146.2770  139.6770  154.2820 C   0  0  0  0  0  0  0  0  0  0  0  0
  145.6480  140.5220  153.3560 C   0  0  0  0  0  3  0  0  0  0  0  0
  148.2440  139.2160  155.6080 O   0  0  0  0  0  0  0  0  0  0  0  0
  148.0550  139.2880  156.5230 H   0  0  0  0  0  0  0  0  0  0  0  0
  145.4990  138.6100  154.6480 O   0  0  0  0  0  0  0  0  0  0  0  0
  145.7070  137.3720  153.9860 C   0  0  0  0  0  1  0  0  0  0  0  0
  145.5900  142.5610  151.8530 C   0  0  0  0  0  2  0  0  0  0  0  0
  146.9010  142.7350  149.7160 C   0  0  0  0  0  2  0  0  0  0  0  0
  145.9000  142.2000  150.4290 C   0  0  0  0  0  3  0  0  0  0  0  0
  1  2  2  0  0  0  0
  1  6  1  0  0  0  0
  2  3  1  0  0  0  0
  3  4  2  0  0  0  0
  4  7  1  0  0  0  0
  5  9  1  0  0  0  0
  5  4  1  0  0  0  0
  6  5  2  0  0  0  0
  7  8  1  0  0  0  0
 10  9  1  0  0  0  0
 11  1  1  0  0  0  0
 12 13  2  0  0  0  0
 13 11  1  0  0  0  0
M  END
>  <MODEL>
2

>  <REMARK>
 VINA RESULT:    -5.311      1.742      2.333
 INTER + INTRA:          -6.603
 INTER:                  -6.361
 INTRA:                  -0.241
 UNBOUND:                -0.205
  Name = CHEMBL42710
  5 active torsions:
  status: ('A' for Active; 'I' for Inactive)
    1  A    between atoms: C_2  and  C_3
    2  A    between atoms: C_3  and  C_4
    3  A    between atoms: C_7  and  O_8
    4  A    between atoms: C_9  and  O_10
    5  A    between atoms: O_10  and  C_11
                            x       y       z     vdW  Elec       q    Type
                         _______ _______ _______ _____ _____    ______ ____

>  <TORSDO>
F 4

>  <SCORE>
-5.311

>  <RMSD_LB>
1.742

>  <RMSD_UB>
2.333

$$$$
CHEMBL42710
 OpenBabel10172500293D

 13 13  0  0  0  0  0  0  0  0999 V2000
  145.6720  140.9610  152.9360 C   0  0  0  0  0  0  0  0  0  0  0  0
  144.6690  140.2750  152.2420 C   0  0  0  0  0  3  0  0  0  0  0  0
  144.2060  139.0440  152.7070 C   0  0  0  0  0  3  0  0  0  0  0  0
  144.7450  138.4760  153.8660 C   0  0  0  0  0  0  0  0  0  0  0  0
  145.7570  139.1380  154.5710 C   0  0  0  0  0  0  0  0  0  0  0  0
  146.2110  140.3760  154.0910 C   0  0  0  0  0  3  0  0  0  0  0  0
  144.2560  137.2680  154.2790 O   0  0  0  0  0  0  0  0  0  0  0  0
  144.8260  136.5280  154.3390 H   0  0  0  0  0  0  0  0  0  0  0  0
  146.3990  138.7400  155.7140 O   0  0  0  0  0  0  0  0  0  0  0  0
  147.8120  138.6140  155.6790 C   0  0  0  0  0  1  0  0  0  0  0  0
  146.1720  142.2950  152.4360 C   0  0  0  0  0  2  0  0  0  0  0  0
  146.5330  142.6580  149.9760 C   0  0  0  0  0  2  0  0  0  0  0  0
  145.7180  142.6020  151.0380 C   0  0  0  0  0  3  0  0  0  0  0  0
  1  6  1  0  0  0  0
  2  3  1  0  0  0  0
  2  1  2  0  0  0  0
  3  4  2  0  0  0  0
  4  7  1  0  0  0  0
  4  5  1  0  0  0  0
  5  9  1  0  0  0  0
  6  5  2  0  0  0  0
  7  8  1  0  0  0  0
 10  9  1  0  0  0  0
 11  1  1  0  0  0  0
 12 13  2  0  0  0  0
 13 11  1  0  0  0  0
M  END
>  <MODEL>
3

>  <REMARK>
 VINA RESULT:    -5.001      2.294      3.910
 INTER + INTRA:          -6.230
 INTER:                  -5.983
 INTRA:                  -0.246
 UNBOUND:                -0.205
  Name = CHEMBL42710
  5 active torsions:
  status: ('A' for Active; 'I' for Inactive)
    1  A    between atoms: C_2  and  C_3
    2  A    between atoms: C_3  and  C_4
    3  A    between atoms: C_7  and  O_8
    4  A    between atoms: C_9  and  O_10
    5  A    between atoms: O_10  and  C_11
                            x       y       z     vdW  Elec       q    Type
                         _______ _______ _______ _____ _____    ______ ____

>  <TORSDO>
F 4

>  <SCORE>
-5.001

>  <RMSD_LB>
2.294

>  <RMSD_UB>
3.910

$$$$
CHEMBL42710
 OpenBabel10172500293D

 13 13  0  0  0  0  0  0  0  0999 V2000
  146.4590  141.9090  151.4000 C   0  0  0  0  0  0  0  0  0  0  0  0
  147.4330  142.4490  150.5550 C   0  0  0  0  0  3  0  0  0  0  0  0
  148.7540  142.5700  150.9880 C   0  0  0  0  0  3  0  0  0  0  0  0
  149.1170  142.1620  152.2770 C   0  0  0  0  0  0  0  0  0  0  0  0
  148.1570  141.6290  153.1450 C   0  0  0  0  0  0  0  0  0  0  0  0
  146.8340  141.5130  152.6930 C   0  0  0  0  0  3  0  0  0  0  0  0
  150.4240  142.3030  152.6510 O   0  0  0  0  0  0  0  0  0  0  0  0
  150.9070  141.5590  152.9530 H   0  0  0  0  0  0  0  0  0  0  0  0
  148.3260  141.1810  154.4280 O   0  0  0  0  0  0  0  0  0  0  0  0
  147.8700  139.8760  154.7460 C   0  0  0  0  0  1  0  0  0  0  0  0
  145.0300  141.7740  150.9320 C   0  0  0  0  0  2  0  0  0  0  0  0
  144.3010  139.3730  150.8150 C   0  0  0  0  0  2  0  0  0  0  0  0
  144.3550  140.5430  151.4650 C   0  0  0  0  0  3  0  0  0  0  0  0
  1  6  1  0  0  0  0
  2  3  1  0  0  0  0
  2  1  2  0  0  0  0
  3  4  2  0  0  0  0
  4  7  1  0  0  0  0
  4  5  1  0  0  0  0
  5  9  1  0  0  0  0
  6  5  2  0  0  0  0
  7  8  1  0  0  0  0
  9 10  1  0  0  0  0
 11  1  1  0  0  0  0
 11 13  1  0  0  0  0
 12 13  2  0  0  0  0
M  END
>  <MODEL>
4

>  <REMARK>
 VINA RESULT:    -4.934      1.771      2.186
 INTER + INTRA:          -6.148
 INTER:                  -5.925
 INTRA:                  -0.224
 UNBOUND:                -0.205
  Name = CHEMBL42710
  5 active torsions:
  status: ('A' for Active; 'I' for Inactive)
    1  A    between atoms: C_2  and  C_3
    2  A    between atoms: C_3  and  C_4
    3  A    between atoms: C_7  and  O_8
    4  A    between atoms: C_9  and  O_10
    5  A    between atoms: O_10  and  C_11
                            x       y       z     vdW  Elec       q    Type
                         _______ _______ _______ _____ _____    ______ ____

>  <TORSDO>
F 4

>  <SCORE>
-4.934

>  <RMSD_LB>
1.771

>  <RMSD_UB>
2.186

$$$$
CHEMBL42710
 OpenBabel10172500293D

 13 13  0  0  0  0  0  0  0  0999 V2000
  134.9350  134.0860  150.7000 C   0  0  0  0  0  0  0  0  0  0  0  0
  133.6140  133.7300  150.9930 C   0  0  0  0  0  3  0  0  0  0  0  0
  132.6740  133.6020  149.9700 C   0  0  0  0  0  3  0  0  0  0  0  0
  133.0390  133.8390  148.6400 C   0  0  0  0  0  0  0  0  0  0  0  0
  134.3510  134.2080  148.3230 C   0  0  0  0  0  0  0  0  0  0  0  0
  135.2840  134.3300  149.3630 C   0  0  0  0  0  3  0  0  0  0  0  0
  132.0800  133.7000  147.6760 O   0  0  0  0  0  0  0  0  0  0  0  0
  132.3270  133.5060  146.7930 H   0  0  0  0  0  0  0  0  0  0  0  0
  134.8860  134.4770  147.0900 O   0  0  0  0  0  0  0  0  0  0  0  0
  135.9050  135.4600  147.0040 C   0  0  0  0  0  1  0  0  0  0  0  0
  135.9540  134.2210  151.8050 C   0  0  0  0  0  2  0  0  0  0  0  0
  135.5510  135.3350  154.0210 C   0  0  0  0  0  2  0  0  0  0  0  0
  135.3280  134.3280  153.1660 C   0  0  0  0  0  3  0  0  0  0  0  0
  1  2  1  0  0  0  0
  1 11  1  0  0  0  0
  3  2  2  0  0  0  0
  4  3  1  0  0  0  0
  5  4  2  0  0  0  0
  5  6  1  0  0  0  0
  6  1  2  0  0  0  0
  7  4  1  0  0  0  0
  8  7  1  0  0  0  0
  9  5  1  0  0  0  0
 10  9  1  0  0  0  0
 11 13  1  0  0  0  0
 13 12  2  0  0  0  0
M  END
>  <MODEL>
5

>  <REMARK>
 VINA RESULT:    -4.883     13.972     15.796
 INTER + INTRA:          -6.088
 INTER:                  -5.854
 INTRA:                  -0.234
 UNBOUND:                -0.205
  Name = CHEMBL42710
  5 active torsions:
  status: ('A' for Active; 'I' for Inactive)
    1  A    between atoms: C_2  and  C_3
    2  A    between atoms: C_3  and  C_4
    3  A    between atoms: C_7  and  O_8
    4  A    between atoms: C_9  and  O_10
    5  A    between atoms: O_10  and  C_11
                            x       y       z     vdW  Elec       q    Type
                         _______ _______ _______ _____ _____    ______ ____

>  <TORSDO>
F 4

>  <SCORE>
-4.883

>  <RMSD_LB>
13.972

>  <RMSD_UB>
15.796

$$$$
CHEMBL42710
 OpenBabel10172500293D

 13 13  0  0  0  0  0  0  0  0999 V2000
  134.0260  134.3350  150.0930 C   0  0  0  0  0  0  0  0  0  0  0  0
  134.1570  132.9810  149.7710 C   0  0  0  0  0  3  0  0  0  0  0  0
  133.8800  132.5330  148.4790 C   0  0  0  0  0  3  0  0  0  0  0  0
  133.4560  133.4320  147.4930 C   0  0  0  0  0  0  0  0  0  0  0  0
  133.3060  134.7910  147.7960 C   0  0  0  0  0  0  0  0  0  0  0  0
  133.5910  135.2240  149.0990 C   0  0  0  0  0  3  0  0  0  0  0  0
  133.1970  132.9420  146.2440 O   0  0  0  0  0  0  0  0  0  0  0  0
  133.7530  132.2840  145.8750 H   0  0  0  0  0  0  0  0  0  0  0  0
  132.9060  135.8070  146.9690 O   0  0  0  0  0  0  0  0  0  0  0  0
  132.5390  137.0440  147.5590 C   0  0  0  0  0  1  0  0  0  0  0  0
  134.3300  134.8220  151.4900 C   0  0  0  0  0  2  0  0  0  0  0  0
  136.6980  135.4940  150.9880 C   0  0  0  0  0  2  0  0  0  0  0  0
  135.5050  135.7540  151.5400 C   0  0  0  0  0  3  0  0  0  0  0  0
  1 11  1  0  0  0  0
  2  1  1  0  0  0  0
  3  2  2  0  0  0  0
  4  5  2  0  0  0  0
  4  3  1  0  0  0  0
  5  6  1  0  0  0  0
  6  1  2  0  0  0  0
  7  4  1  0  0  0  0
  8  7  1  0  0  0  0
  9 10  1  0  0  0  0
  9  5  1  0  0  0  0
 11 13  1  0  0  0  0
 12 13  2  0  0  0  0
M  END
>  <MODEL>
6

>  <REMARK>
 VINA RESULT:    -4.717     14.116     16.081
 INTER + INTRA:          -5.888
 INTER:                  -5.643
 INTRA:                  -0.245
 UNBOUND:                -0.205
  Name = CHEMBL42710
  5 active torsions:
  status: ('A' for Active; 'I' for Inactive)
    1  A    between atoms: C_2  and  C_3
    2  A    between atoms: C_3  and  C_4
    3  A    between atoms: C_7  and  O_8
    4  A    between atoms: C_9  and  O_10
    5  A    between atoms: O_10  and  C_11
                            x       y       z     vdW  Elec       q    Type
                         _______ _______ _______ _____ _____    ______ ____

>  <TORSDO>
F 4

>  <SCORE>
-4.717

>  <RMSD_LB>
14.116

>  <RMSD_UB>
16.081

$$$$
CHEMBL42710
 OpenBabel10172500293D

 13 13  0  0  0  0  0  0  0  0999 V2000
  134.3990  133.9990  151.6420 C   0  0  0  0  0  0  0  0  0  0  0  0
  135.5320  134.6940  151.2070 C   0  0  0  0  0  3  0  0  0  0  0  0
  136.1570  135.6190  152.0430 C   0  0  0  0  0  3  0  0  0  0  0  0
  135.6520  135.8710  153.3240 C   0  0  0  0  0  0  0  0  0  0  0  0
  134.5130  135.1960  153.7770 C   0  0  0  0  0  0  0  0  0  0  0  0
  133.8970  134.2690  152.9250 C   0  0  0  0  0  3  0  0  0  0  0  0
  136.3020  136.7860  154.1030 O   0  0  0  0  0  0  0  0  0  0  0  0
  135.8150  137.4450  154.5570 H   0  0  0  0  0  0  0  0  0  0  0  0
  133.8810  135.3110  154.9880 O   0  0  0  0  0  0  0  0  0  0  0  0
  134.4720  134.6780  156.1130 C   0  0  0  0  0  1  0  0  0  0  0  0
  133.7230  132.9960  150.7390 C   0  0  0  0  0  2  0  0  0  0  0  0
  133.3530  133.3030  148.2730 C   0  0  0  0  0  2  0  0  0  0  0  0
  134.1750  133.0980  149.3120 C   0  0  0  0  0  3  0  0  0  0  0  0
  1  6  1  0  0  0  0
  2  1  2  0  0  0  0
  2  3  1  0  0  0  0
  3  4  2  0  0  0  0
  4  5  1  0  0  0  0
  4  7  1  0  0  0  0
  5  9  1  0  0  0  0
  6  5  2  0  0  0  0
  7  8  1  0  0  0  0
  9 10  1  0  0  0  0
 11  1  1  0  0  0  0
 12 13  2  0  0  0  0
 13 11  1  0  0  0  0
M  END
>  <MODEL>
7

>  <REMARK>
 VINA RESULT:    -4.683     12.776     14.551
 INTER + INTRA:          -5.847
 INTER:                  -5.630
 INTRA:                  -0.217
 UNBOUND:                -0.205
  Name = CHEMBL42710
  5 active torsions:
  status: ('A' for Active; 'I' for Inactive)
    1  A    between atoms: C_2  and  C_3
    2  A    between atoms: C_3  and  C_4
    3  A    between atoms: C_7  and  O_8
    4  A    between atoms: C_9  and  O_10
    5  A    between atoms: O_10  and  C_11
                            x       y       z     vdW  Elec       q    Type
                         _______ _______ _______ _____ _____    ______ ____

>  <TORSDO>
F 4

>  <SCORE>
-4.683

>  <RMSD_LB>
12.776

>  <RMSD_UB>
14.551

$$$$
CHEMBL42710
 OpenBabel10172500293D

 13 13  0  0  0  0  0  0  0  0999 V2000
  144.8180  140.8240  151.7160 C   0  0  0  0  0  0  0  0  0  0  0  0
  145.5870  141.9910  151.6600 C   0  0  0  0  0  3  0  0  0  0  0  0
  146.4550  142.3140  152.7030 C   0  0  0  0  0  3  0  0  0  0  0  0
  146.5590  141.4810  153.8230 C   0  0  0  0  0  0  0  0  0  0  0  0
  145.7900  140.3140  153.9070 C   0  0  0  0  0  0  0  0  0  0  0  0
  144.9240  140.0030  152.8490 C   0  0  0  0  0  3  0  0  0  0  0  0
  147.4240  141.8440  154.8170 O   0  0  0  0  0  0  0  0  0  0  0  0
  148.2020  142.3230  154.6080 H   0  0  0  0  0  0  0  0  0  0  0  0
  145.7590  139.3860  154.9140 O   0  0  0  0  0  0  0  0  0  0  0  0
  146.8160  138.4420  154.9870 C   0  0  0  0  0  1  0  0  0  0  0  0
  143.8810  140.4710  150.5860 C   0  0  0  0  0  2  0  0  0  0  0  0
  145.5990  139.2610  149.2090 C   0  0  0  0  0  2  0  0  0  0  0  0
  144.6020  140.1500  149.3090 C   0  0  0  0  0  3  0  0  0  0  0  0
  1  6  1  0  0  0  0
  2  1  2  0  0  0  0
  2  3  1  0  0  0  0
  3  4  2  0  0  0  0
  4  5  1  0  0  0  0
  4  7  1  0  0  0  0
  5  9  1  0  0  0  0
  6  5  2  0  0  0  0
  8  7  1  0  0  0  0
  9 10  1  0  0  0  0
 11  1  1  0  0  0  0
 12 13  2  0  0  0  0
 13 11  1  0  0  0  0
M  END
>  <MODEL>
8

>  <REMARK>
 VINA RESULT:    -4.681      1.850      2.535
 INTER + INTRA:          -5.844
 INTER:                  -5.583
 INTRA:                  -0.261
 UNBOUND:                -0.205
  Name = CHEMBL42710
  5 active torsions:
  status: ('A' for Active; 'I' for Inactive)
    1  A    between atoms: C_2  and  C_3
    2  A    between atoms: C_3  and  C_4
    3  A    between atoms: C_7  and  O_8
    4  A    between atoms: C_9  and  O_10
    5  A    between atoms: O_10  and  C_11
                            x       y       z     vdW  Elec       q    Type
                         _______ _______ _______ _____ _____    ______ ____

>  <TORSDO>
F 4

>  <SCORE>
-4.681

>  <RMSD_LB>
1.850

>  <RMSD_UB>
2.535

$$$$
CHEMBL42710
 OpenBabel10172500293D

 13 13  0  0  0  0  0  0  0  0999 V2000
  140.2110  137.6640  152.0410 C   0  0  0  0  0  0  0  0  0  0  0  0
  141.5950  137.5440  152.2000 C   0  0  0  0  0  3  0  0  0  0  0  0
  142.1970  137.8680  153.4170 C   0  0  0  0  0  3  0  0  0  0  0  0
  141.4240  138.3270  154.4890 C   0  0  0  0  0  0  0  0  0  0  0  0
  140.0380  138.4660  154.3510 C   0  0  0  0  0  0  0  0  0  0  0  0
  139.4490  138.1350  153.1210 C   0  0  0  0  0  3  0  0  0  0  0  0
  142.0630  138.6300  155.6590 O   0  0  0  0  0  0  0  0  0  0  0  0
  141.7950  138.2200  156.4580 H   0  0  0  0  0  0  0  0  0  0  0  0
  139.1290  138.8960  155.2810 O   0  0  0  0  0  0  0  0  0  0  0  0
  137.8030  138.3960  155.2010 C   0  0  0  0  0  1  0  0  0  0  0  0
  139.5590  137.3110  150.7270 C   0  0  0  0  0  2  0  0  0  0  0  0
  137.2980  136.2390  150.4960 C   0  0  0  0  0  2  0  0  0  0  0  0
  138.0600  137.2970  150.8050 C   0  0  0  0  0  3  0  0  0  0  0  0
  1  2  2  0  0  0  0
  1  6  1  0  0  0  0
  2  3  1  0  0  0  0
  3  4  2  0  0  0  0
  4  7  1  0  0  0  0
  5  4  1  0  0  0  0
  5  9  1  0  0  0  0
  6  5  2  0  0  0  0
  7  8  1  0  0  0  0
 10  9  1  0  0  0  0
 11 13  1  0  0  0  0
 11  1  1  0  0  0  0
 12 13  2  0  0  0  0
M  END
>  <MODEL>
9

>  <REMARK>
 VINA RESULT:    -4.678      6.849      8.450
 INTER + INTRA:          -5.840
 INTER:                  -5.635
 INTRA:                  -0.205
 UNBOUND:                -0.205
  Name = CHEMBL42710
  5 active torsions:
  status: ('A' for Active; 'I' for Inactive)
    1  A    between atoms: C_2  and  C_3
    2  A    between atoms: C_3  and  C_4
    3  A    between atoms: C_7  and  O_8
    4  A    between atoms: C_9  and  O_10
    5  A    between atoms: O_10  and  C_11
                            x       y       z     vdW  Elec       q    Type
                         _______ _______ _______ _____ _____    ______ ____

>  <TORSDO>
F 4

>  <SCORE>
-4.678

>  <RMSD_LB>
6.849

>  <RMSD_UB>
8.450

$$$$
