CHEMBL58719
 OpenBabel10172500303D

 26 26  0  0  1  0  0  0  0  0999 V2000
  144.5880  140.0180  154.0220 N   0  0  0  0  0  0  0  0  0  0  0  0
  144.2580  138.7890  154.1800 C   0  0  1  0  0  3  0  0  0  0  0  0
  143.1010  138.4150  154.7920 N   0  0  0  0  0  0  0  0  0  0  0  0
  143.9580  140.7040  154.3420 H   0  0  0  0  0  0  0  0  0  0  0  0
  143.0400  137.4940  155.1340 H   0  0  0  0  0  0  0  0  0  0  0  0
  145.1730  137.3920  153.6460 S   0  0  0  0  0  0  0  0  0  0  0  0
  144.9550  137.1880  152.3190 H   0  0  0  0  0  0  0  0  0  0  0  0
  145.8220  140.4730  153.4070 C   0  0  0  0  0  2  0  0  0  0  0  0
  146.3030  141.7300  154.1280 C   0  0  0  0  0  2  0  0  0  0  0  0
  147.8170  141.8780  154.0150 C   0  0  0  0  0  2  0  0  0  0  0  0
  148.3600  141.1480  152.7890 C   0  0  0  0  0  2  0  0  0  0  0  0
  149.2380  142.0750  151.9500 C   0  0  0  0  0  2  0  0  0  0  0  0
  148.4530  142.6780  150.7880 C   0  0  0  0  0  2  0  0  0  0  0  0
  145.9740  142.6720  150.3720 C   0  0  0  0  0  1  0  0  0  0  0  0
  147.2320  141.8250  150.4430 C   0  0  0  0  0  2  0  0  0  0  0  0
  141.9590  139.2770  154.9750 C   0  0  0  0  0  2  0  0  0  0  0  0
  140.7640  138.7190  154.2360 C   0  0  0  0  0  0  0  0  0  0  0  0
  140.8970  138.2150  152.9350 C   0  0  0  0  0  3  0  0  0  0  0  0
  139.7830  137.7330  152.2450 C   0  0  0  0  0  3  0  0  0  0  0  0
  138.5170  137.7550  152.8390 C   0  0  0  0  0  0  0  0  0  0  0  0
  138.3560  138.2590  154.1350 C   0  0  0  0  0  0  0  0  0  0  0  0
  139.4850  138.7350  154.8180 C   0  0  0  0  0  3  0  0  0  0  0  0
  137.4590  137.2750  152.1200 O   0  0  0  0  0  0  0  0  0  0  0  0
  137.4330  136.3720  151.8700 H   0  0  0  0  0  0  0  0  0  0  0  0
  137.2060  138.3660  154.8700 O   0  0  0  0  0  0  0  0  0  0  0  0
  136.8950  137.3270  155.7870 C   0  0  0  0  0  1  0  0  0  0  0  0
  1  2  1  0  0  0  0
  1  4  1  0  0  0  0
  2  6  1  6  0  0  0
  2  3  1  0  0  0  0
  3 16  1  0  0  0  0
  3  5  1  0  0  0  0
  7  6  1  0  0  0  0
  8  1  1  0  0  0  0
  8  9  1  0  0  0  0
 10  9  1  0  0  0  0
 11 10  1  0  0  0  0
 12 11  1  0  0  0  0
 13 12  1  0  0  0  0
 14 15  1  0  0  0  0
 15 13  1  0  0  0  0
 17 22  1  0  0  0  0
 17 16  1  0  0  0  0
 18 17  2  0  0  0  0
 19 20  2  0  0  0  0
 19 18  1  0  0  0  0
 20 21  1  0  0  0  0
 21 22  2  0  0  0  0
 21 25  1  0  0  0  0
 23 20  1  0  0  0  0
 24 23  1  0  0  0  0
 25 26  1  0  0  0  0
M  END
>  <MODEL>
1

>  <REMARK>
 VINA RESULT:    -6.321      0.000      0.000
 INTER + INTRA:         -11.275
 INTER:                 -10.433
 INTRA:                  -0.842
 UNBOUND:                -0.889
  Name = CHEMBL58719
  14 active torsions:
  status: ('A' for Active; 'I' for Inactive)
    1  A    between atoms: C_1  and  C_2
    2  A    between atoms: C_2  and  C_3
    3  A    between atoms: C_3  and  C_4
    4  A    between atoms: C_4  and  C_5
    5  A    between atoms: C_5  and  C_6
    6  A    between atoms: C_6  and  C_7
    7  A    between atoms: C_7  and  C_8
    8  A    between atoms: C_8  and  N_9
    9  A    between atoms: C_10  and  S_11
   10  A    between atoms: N_12  and  C_13
   11  A    between atoms: C_13  and  C_14
   12  A    between atoms: C_17  and  O_18
   13  A    between atoms: C_19  and  O_20
   14  A    between atoms: O_20  and  C_21
                            x       y       z     vdW  Elec       q    Type
                         _______ _______ _______ _____ _____    ______ ____

>  <TORSDO>
F 12

>  <SCORE>
-6.321

>  <RMSD_LB>
0.000

>  <RMSD_UB>
0.000

$$$$
CHEMBL58719
 OpenBabel10172500303D

 26 26  0  0  1  0  0  0  0  0999 V2000
  144.9900  138.4560  149.8380 N   0  0  0  0  0  0  0  0  0  0  0  0
  143.9720  137.6980  149.6530 C   0  0  1  0  0  3  0  0  0  0  0  0
  143.4630  136.9040  150.6350 N   0  0  0  0  0  0  0  0  0  0  0  0
  145.3920  138.4680  150.7370 H   0  0  0  0  0  0  0  0  0  0  0  0
  142.8860  136.1540  150.3640 H   0  0  0  0  0  0  0  0  0  0  0  0
  143.0470  137.5460  148.1710 S   0  0  0  0  0  0  0  0  0  0  0  0
  143.8250  136.9850  147.2080 H   0  0  0  0  0  0  0  0  0  0  0  0
  145.5940  139.2970  148.8200 C   0  0  0  0  0  2  0  0  0  0  0  0
  146.6650  140.1710  149.4680 C   0  0  0  0  0  2  0  0  0  0  0  0
  146.3470  141.6520  149.2830 C   0  0  0  0  0  2  0  0  0  0  0  0
  146.7860  142.4730  150.4930 C   0  0  0  0  0  2  0  0  0  0  0  0
  145.7140  142.4520  151.5810 C   0  0  0  0  0  2  0  0  0  0  0  0
  146.3340  142.2710  152.9640 C   0  0  0  0  0  2  0  0  0  0  0  0
  148.3520  141.4080  154.1890 C   0  0  0  0  0  1  0  0  0  0  0  0
  147.8190  141.9240  152.8650 C   0  0  0  0  0  2  0  0  0  0  0  0
  143.7130  137.0860  152.0430 C   0  0  0  0  0  2  0  0  0  0  0  0
  142.4940  137.6740  152.7150 C   0  0  0  0  0  0  0  0  0  0  0  0
  141.2240  137.5470  152.1350 C   0  0  0  0  0  3  0  0  0  0  0  0
  140.1070  138.1220  152.7430 C   0  0  0  0  0  3  0  0  0  0  0  0
  140.2400  138.8410  153.9350 C   0  0  0  0  0  0  0  0  0  0  0  0
  141.4970  138.9890  154.5310 C   0  0  0  0  0  0  0  0  0  0  0  0
  142.6100  138.4010  153.9120 C   0  0  0  0  0  3  0  0  0  0  0  0
  139.1150  139.3870  154.4870 O   0  0  0  0  0  0  0  0  0  0  0  0
  139.1810  139.9190  155.2570 H   0  0  0  0  0  0  0  0  0  0  0  0
  141.8210  139.6560  155.6820 O   0  0  0  0  0  0  0  0  0  0  0  0
  143.1810  140.0010  155.9010 C   0  0  0  0  0  1  0  0  0  0  0  0
  1  4  1  0  0  0  0
  2  6  1  1  0  0  0
  2  1  1  0  0  0  0
  2  3  1  0  0  0  0
  3 16  1  0  0  0  0
  5  3  1  0  0  0  0
  7  6  1  0  0  0  0
  8  9  1  0  0  0  0
  8  1  1  0  0  0  0
 10  9  1  0  0  0  0
 10 11  1  0  0  0  0
 11 12  1  0  0  0  0
 12 13  1  0  0  0  0
 15 13  1  0  0  0  0
 15 14  1  0  0  0  0
 16 17  1  0  0  0  0
 17 22  1  0  0  0  0
 18 17  2  0  0  0  0
 18 19  1  0  0  0  0
 19 20  2  0  0  0  0
 20 23  1  0  0  0  0
 20 21  1  0  0  0  0
 21 25  1  0  0  0  0
 22 21  2  0  0  0  0
 23 24  1  0  0  0  0
 25 26  1  0  0  0  0
M  END
>  <MODEL>
2

>  <REMARK>
 VINA RESULT:    -6.144      2.737      4.053
 INTER + INTRA:         -10.983
 INTER:                 -10.047
 INTRA:                  -0.937
 UNBOUND:                -0.889
  Name = CHEMBL58719
  14 active torsions:
  status: ('A' for Active; 'I' for Inactive)
    1  A    between atoms: C_1  and  C_2
    2  A    between atoms: C_2  and  C_3
    3  A    between atoms: C_3  and  C_4
    4  A    between atoms: C_4  and  C_5
    5  A    between atoms: C_5  and  C_6
    6  A    between atoms: C_6  and  C_7
    7  A    between atoms: C_7  and  C_8
    8  A    between atoms: C_8  and  N_9
    9  A    between atoms: C_10  and  S_11
   10  A    between atoms: N_12  and  C_13
   11  A    between atoms: C_13  and  C_14
   12  A    between atoms: C_17  and  O_18
   13  A    between atoms: C_19  and  O_20
   14  A    between atoms: O_20  and  C_21
                            x       y       z     vdW  Elec       q    Type
                         _______ _______ _______ _____ _____    ______ ____

>  <TORSDO>
F 12

>  <SCORE>
-6.144

>  <RMSD_LB>
2.737

>  <RMSD_UB>
4.053

$$$$
CHEMBL58719
 OpenBabel10172500303D

 26 26  0  0  1  0  0  0  0  0999 V2000
  144.7550  138.4100  150.2070 N   0  0  0  0  0  0  0  0  0  0  0  0
  143.7260  137.6730  150.0000 C   0  0  1  0  0  3  0  0  0  0  0  0
  143.0730  137.0300  151.0070 N   0  0  0  0  0  0  0  0  0  0  0  0
  145.0560  138.5210  151.1370 H   0  0  0  0  0  0  0  0  0  0  0  0
  142.4910  136.2730  150.7650 H   0  0  0  0  0  0  0  0  0  0  0  0
  142.9610  137.3690  148.4520 S   0  0  0  0  0  0  0  0  0  0  0  0
  143.8090  136.6620  147.6590 H   0  0  0  0  0  0  0  0  0  0  0  0
  145.5090  139.0920  149.1700 C   0  0  0  0  0  2  0  0  0  0  0  0
  146.5530  139.9920  149.8250 C   0  0  0  0  0  2  0  0  0  0  0  0
  146.4080  141.4330  149.3470 C   0  0  0  0  0  2  0  0  0  0  0  0
  146.7270  142.4260  150.4620 C   0  0  0  0  0  2  0  0  0  0  0  0
  145.6360  142.4110  151.5310 C   0  0  0  0  0  2  0  0  0  0  0  0
  146.2360  142.3440  152.9330 C   0  0  0  0  0  2  0  0  0  0  0  0
  148.2360  141.5700  154.2450 C   0  0  0  0  0  1  0  0  0  0  0  0
  147.7260  142.0050  152.8830 C   0  0  0  0  0  2  0  0  0  0  0  0
  143.1770  137.3790  152.4020 C   0  0  0  0  0  2  0  0  0  0  0  0
  141.8460  137.8810  152.9130 C   0  0  0  0  0  0  0  0  0  0  0  0
  141.7140  138.3550  154.2250 C   0  0  0  0  0  3  0  0  0  0  0  0
  140.4750  138.7850  154.7020 C   0  0  0  0  0  3  0  0  0  0  0  0
  139.3440  138.7390  153.8790 C   0  0  0  0  0  0  0  0  0  0  0  0
  139.4470  138.2640  152.5670 C   0  0  0  0  0  0  0  0  0  0  0  0
  140.7010  137.8410  152.1000 C   0  0  0  0  0  3  0  0  0  0  0  0
  138.1540  139.1680  154.3950 O   0  0  0  0  0  0  0  0  0  0  0  0
  137.3700  139.1000  153.8860 H   0  0  0  0  0  0  0  0  0  0  0  0
  138.4610  138.1410  151.6260 O   0  0  0  0  0  0  0  0  0  0  0  0
  138.7080  138.6460  150.3220 C   0  0  0  0  0  1  0  0  0  0  0  0
  1  4  1  0  0  0  0
  2  6  1  1  0  0  0
  2  1  1  0  0  0  0
  2  3  1  0  0  0  0
  3 16  1  0  0  0  0
  5  3  1  0  0  0  0
  7  6  1  0  0  0  0
  8  9  1  0  0  0  0
  8  1  1  0  0  0  0
 10  9  1  0  0  0  0
 10 11  1  0  0  0  0
 11 12  1  0  0  0  0
 12 13  1  0  0  0  0
 15 13  1  0  0  0  0
 15 14  1  0  0  0  0
 16 17  1  0  0  0  0
 17 18  1  0  0  0  0
 18 19  2  0  0  0  0
 20 23  1  0  0  0  0
 20 19  1  0  0  0  0
 21 20  2  0  0  0  0
 22 21  1  0  0  0  0
 22 17  2  0  0  0  0
 24 23  1  0  0  0  0
 25 21  1  0  0  0  0
 26 25  1  0  0  0  0
M  END
>  <MODEL>
3

>  <REMARK>
 VINA RESULT:    -6.015      2.395      3.739
 INTER + INTRA:         -10.772
 INTER:                  -9.907
 INTRA:                  -0.864
 UNBOUND:                -0.889
  Name = CHEMBL58719
  14 active torsions:
  status: ('A' for Active; 'I' for Inactive)
    1  A    between atoms: C_1  and  C_2
    2  A    between atoms: C_2  and  C_3
    3  A    between atoms: C_3  and  C_4
    4  A    between atoms: C_4  and  C_5
    5  A    between atoms: C_5  and  C_6
    6  A    between atoms: C_6  and  C_7
    7  A    between atoms: C_7  and  C_8
    8  A    between atoms: C_8  and  N_9
    9  A    between atoms: C_10  and  S_11
   10  A    between atoms: N_12  and  C_13
   11  A    between atoms: C_13  and  C_14
   12  A    between atoms: C_17  and  O_18
   13  A    between atoms: C_19  and  O_20
   14  A    between atoms: O_20  and  C_21
                            x       y       z     vdW  Elec       q    Type
                         _______ _______ _______ _____ _____    ______ ____

>  <TORSDO>
F 12

>  <SCORE>
-6.015

>  <RMSD_LB>
2.395

>  <RMSD_UB>
3.739

$$$$
CHEMBL58719
 OpenBabel10172500303D

 26 26  0  0  1  0  0  0  0  0999 V2000
  146.6620  139.8590  147.9870 N   0  0  0  0  0  0  0  0  0  0  0  0
  145.5560  140.2990  148.4650 C   0  0  1  0  0  3  0  0  0  0  0  0
  145.5040  141.3070  149.3780 N   0  0  0  0  0  0  0  0  0  0  0  0
  147.4920  140.2930  148.2850 H   0  0  0  0  0  0  0  0  0  0  0  0
  144.6810  141.4020  149.9090 H   0  0  0  0  0  0  0  0  0  0  0  0
  143.9480  139.7380  148.0480 S   0  0  0  0  0  0  0  0  0  0  0  0
  143.7740  138.4730  148.5150 H   0  0  0  0  0  0  0  0  0  0  0  0
  146.7780  138.7660  147.0370 C   0  0  0  0  0  2  0  0  0  0  0  0
  148.0200  137.9460  147.3730 C   0  0  0  0  0  2  0  0  0  0  0  0
  147.6450  136.5160  147.7500 C   0  0  0  0  0  2  0  0  0  0  0  0
  148.7870  135.8130  148.4800 C   0  0  0  0  0  2  0  0  0  0  0  0
  148.3360  135.3360  149.8600 C   0  0  0  0  0  2  0  0  0  0  0  0
  146.9120  135.7930  150.1650 C   0  0  0  0  0  2  0  0  0  0  0  0
  147.0370  138.0840  151.1920 C   0  0  0  0  0  1  0  0  0  0  0  0
  146.8540  136.6010  151.4610 C   0  0  0  0  0  2  0  0  0  0  0  0
  146.5730  142.2440  149.6210 C   0  0  0  0  0  2  0  0  0  0  0  0
  147.1100  142.0670  151.0230 C   0  0  0  0  0  0  0  0  0  0  0  0
  148.4800  142.1970  151.2870 C   0  0  0  0  0  3  0  0  0  0  0  0
  148.9740  141.9990  152.5770 C   0  0  0  0  0  3  0  0  0  0  0  0
  148.1100  141.6580  153.6230 C   0  0  0  0  0  0  0  0  0  0  0  0
  146.7380  141.5160  153.3840 C   0  0  0  0  0  0  0  0  0  0  0  0
  146.2550  141.7240  152.0840 C   0  0  0  0  0  3  0  0  0  0  0  0
  148.6450  141.4710  154.8670 O   0  0  0  0  0  0  0  0  0  0  0  0
  148.0970  141.5250  155.6250 H   0  0  0  0  0  0  0  0  0  0  0  0
  145.7490  141.1850  154.2710 O   0  0  0  0  0  0  0  0  0  0  0  0
  145.2630  139.8510  154.2700 C   0  0  0  0  0  1  0  0  0  0  0  0
  1  4  1  0  0  0  0
  1  2  1  0  0  0  0
  2  6  1  6  0  0  0
  2  3  1  0  0  0  0
  3 16  1  0  0  0  0
  3  5  1  0  0  0  0
  6  7  1  0  0  0  0
  8  9  1  0  0  0  0
  8  1  1  0  0  0  0
  9 10  1  0  0  0  0
 10 11  1  0  0  0  0
 11 12  1  0  0  0  0
 12 13  1  0  0  0  0
 13 15  1  0  0  0  0
 14 15  1  0  0  0  0
 16 17  1  0  0  0  0
 17 18  2  0  0  0  0
 17 22  1  0  0  0  0
 18 19  1  0  0  0  0
 19 20  2  0  0  0  0
 20 23  1  0  0  0  0
 21 20  1  0  0  0  0
 21 25  1  0  0  0  0
 22 21  2  0  0  0  0
 23 24  1  0  0  0  0
 26 25  1  0  0  0  0
M  END
>  <MODEL>
4

>  <REMARK>
 VINA RESULT:    -5.857      5.201      7.963
 INTER + INTRA:         -10.512
 INTER:                  -9.083
 INTRA:                  -1.430
 UNBOUND:                -0.889
  Name = CHEMBL58719
  14 active torsions:
  status: ('A' for Active; 'I' for Inactive)
    1  A    between atoms: C_1  and  C_2
    2  A    between atoms: C_2  and  C_3
    3  A    between atoms: C_3  and  C_4
    4  A    between atoms: C_4  and  C_5
    5  A    between atoms: C_5  and  C_6
    6  A    between atoms: C_6  and  C_7
    7  A    between atoms: C_7  and  C_8
    8  A    between atoms: C_8  and  N_9
    9  A    between atoms: C_10  and  S_11
   10  A    between atoms: N_12  and  C_13
   11  A    between atoms: C_13  and  C_14
   12  A    between atoms: C_17  and  O_18
   13  A    between atoms: C_19  and  O_20
   14  A    between atoms: O_20  and  C_21
                            x       y       z     vdW  Elec       q    Type
                         _______ _______ _______ _____ _____    ______ ____

>  <TORSDO>
F 12

>  <SCORE>
-5.857

>  <RMSD_LB>
5.201

>  <RMSD_UB>
7.963

$$$$
CHEMBL58719
 OpenBabel10172500303D

 26 26  0  0  1  0  0  0  0  0999 V2000
  141.3520  139.6050  151.5110 N   0  0  0  0  0  0  0  0  0  0  0  0
  140.0840  139.7580  151.3940 C   0  0  1  0  0  3  0  0  0  0  0  0
  139.2090  139.3880  152.3690 N   0  0  0  0  0  0  0  0  0  0  0  0
  141.6890  139.2240  152.3540 H   0  0  0  0  0  0  0  0  0  0  0  0
  138.2670  139.2630  152.1160 H   0  0  0  0  0  0  0  0  0  0  0  0
  139.2460  140.4660  150.0260 S   0  0  0  0  0  0  0  0  0  0  0  0
  139.9470  140.2180  148.8880 H   0  0  0  0  0  0  0  0  0  0  0  0
  142.3270  139.9510  150.4920 C   0  0  0  0  0  2  0  0  0  0  0  0
  143.7270  139.6470  151.0190 C   0  0  0  0  0  2  0  0  0  0  0  0
  144.5540  140.9220  151.1390 C   0  0  0  0  0  2  0  0  0  0  0  0
  145.3850  140.9310  152.4200 C   0  0  0  0  0  2  0  0  0  0  0  0
  146.2700  142.1750  152.4850 C   0  0  0  0  0  2  0  0  0  0  0  0
  147.1680  142.2780  151.2550 C   0  0  0  0  0  2  0  0  0  0  0  0
  148.8870  141.8930  153.0490 C   0  0  0  0  0  1  0  0  0  0  0  0
  148.5880  141.8020  151.5640 C   0  0  0  0  0  2  0  0  0  0  0  0
  139.5710  139.1640  153.7470 C   0  0  0  0  0  2  0  0  0  0  0  0
  138.6120  138.1820  154.3820 C   0  0  0  0  0  0  0  0  0  0  0  0
  137.7370  137.4230  153.5930 C   0  0  0  0  0  3  0  0  0  0  0  0
  136.8300  136.5440  154.1880 C   0  0  0  0  0  3  0  0  0  0  0  0
  136.7770  136.4150  155.5800 C   0  0  0  0  0  0  0  0  0  0  0  0
  137.6350  137.1660  156.3900 C   0  0  0  0  0  0  0  0  0  0  0  0
  138.5450  138.0410  155.7780 C   0  0  0  0  0  3  0  0  0  0  0  0
  135.8690  135.5420  156.1120 O   0  0  0  0  0  0  0  0  0  0  0  0
  135.0340  135.4260  155.7020 H   0  0  0  0  0  0  0  0  0  0  0  0
  137.7240  137.1770  157.7560 O   0  0  0  0  0  0  0  0  0  0  0  0
  136.7400  137.8940  158.4880 C   0  0  0  0  0  1  0  0  0  0  0  0
  1  4  1  0  0  0  0
  2  6  1  1  0  0  0
  2  1  1  0  0  0  0
  2  3  1  0  0  0  0
  3 16  1  0  0  0  0
  5  3  1  0  0  0  0
  7  6  1  0  0  0  0
  8  9  1  0  0  0  0
  8  1  1  0  0  0  0
  9 10  1  0  0  0  0
 10 11  1  0  0  0  0
 11 12  1  0  0  0  0
 13 15  1  0  0  0  0
 13 12  1  0  0  0  0
 15 14  1  0  0  0  0
 16 17  1  0  0  0  0
 17 22  1  0  0  0  0
 18 19  1  0  0  0  0
 18 17  2  0  0  0  0
 19 20  2  0  0  0  0
 20 23  1  0  0  0  0
 20 21  1  0  0  0  0
 21 25  1  0  0  0  0
 22 21  2  0  0  0  0
 24 23  1  0  0  0  0
 25 26  1  0  0  0  0
M  END
>  <MODEL>
5

>  <REMARK>
 VINA RESULT:    -5.783      2.804      3.822
 INTER + INTRA:         -10.391
 INTER:                  -9.868
 INTRA:                  -0.522
 UNBOUND:                -0.889
  Name = CHEMBL58719
  14 active torsions:
  status: ('A' for Active; 'I' for Inactive)
    1  A    between atoms: C_1  and  C_2
    2  A    between atoms: C_2  and  C_3
    3  A    between atoms: C_3  and  C_4
    4  A    between atoms: C_4  and  C_5
    5  A    between atoms: C_5  and  C_6
    6  A    between atoms: C_6  and  C_7
    7  A    between atoms: C_7  and  C_8
    8  A    between atoms: C_8  and  N_9
    9  A    between atoms: C_10  and  S_11
   10  A    between atoms: N_12  and  C_13
   11  A    between atoms: C_13  and  C_14
   12  A    between atoms: C_17  and  O_18
   13  A    between atoms: C_19  and  O_20
   14  A    between atoms: O_20  and  C_21
                            x       y       z     vdW  Elec       q    Type
                         _______ _______ _______ _____ _____    ______ ____

>  <TORSDO>
F 12

>  <SCORE>
-5.783

>  <RMSD_LB>
2.804

>  <RMSD_UB>
3.822

$$$$
CHEMBL58719
 OpenBabel10172500303D

 26 26  0  0  1  0  0  0  0  0999 V2000
  144.5370  138.6470  149.7800 N   0  0  0  0  0  0  0  0  0  0  0  0
  145.2420  139.6100  149.3100 C   0  0  1  0  0  3  0  0  0  0  0  0
  145.1570  140.8810  149.7900 N   0  0  0  0  0  0  0  0  0  0  0  0
  143.9340  138.8480  150.5310 H   0  0  0  0  0  0  0  0  0  0  0  0
  145.4910  141.6100  149.2200 H   0  0  0  0  0  0  0  0  0  0  0  0
  146.4280  139.4960  148.0240 S   0  0  0  0  0  0  0  0  0  0  0  0
  147.5650  138.9290  148.5050 H   0  0  0  0  0  0  0  0  0  0  0  0
  144.5630  137.2820  149.2850 C   0  0  0  0  0  2  0  0  0  0  0  0
  143.5400  136.4530  150.0580 C   0  0  0  0  0  2  0  0  0  0  0  0
  142.1390  136.6470  149.4880 C   0  0  0  0  0  2  0  0  0  0  0  0
  141.1430  137.0400  150.5770 C   0  0  0  0  0  2  0  0  0  0  0  0
  141.0930  138.5580  150.7450 C   0  0  0  0  0  2  0  0  0  0  0  0
  141.7310  138.9890  152.0630 C   0  0  0  0  0  2  0  0  0  0  0  0
  143.0980  137.6240  153.6720 C   0  0  0  0  0  1  0  0  0  0  0  0
  141.7170  137.8520  153.0840 C   0  0  0  0  0  2  0  0  0  0  0  0
  144.6070  141.2320  151.0760 C   0  0  0  0  0  2  0  0  0  0  0  0
  145.6920  141.2070  152.1290 C   0  0  0  0  0  0  0  0  0  0  0  0
  146.7940  142.0680  152.0430 C   0  0  0  0  0  3  0  0  0  0  0  0
  147.8100  142.0160  152.9990 C   0  0  0  0  0  3  0  0  0  0  0  0
  147.7460  141.0970  154.0510 C   0  0  0  0  0  0  0  0  0  0  0  0
  146.6600  140.2210  154.1560 C   0  0  0  0  0  0  0  0  0  0  0  0
  145.6440  140.2890  153.1910 C   0  0  0  0  0  3  0  0  0  0  0  0
  148.7680  141.0840  154.9590 O   0  0  0  0  0  0  0  0  0  0  0  0
  149.1910  141.8850  155.2010 H   0  0  0  0  0  0  0  0  0  0  0  0
  146.4290  139.2600  155.1040 O   0  0  0  0  0  0  0  0  0  0  0  0
  146.6450  137.9010  154.7500 C   0  0  0  0  0  1  0  0  0  0  0  0
  1  4  1  0  0  0  0
  2  6  1  1  0  0  0
  2  1  1  0  0  0  0
  2  3  1  0  0  0  0
  3 16  1  0  0  0  0
  5  3  1  0  0  0  0
  6  7  1  0  0  0  0
  8  1  1  0  0  0  0
  8  9  1  0  0  0  0
 10  9  1  0  0  0  0
 10 11  1  0  0  0  0
 11 12  1  0  0  0  0
 12 13  1  0  0  0  0
 13 15  1  0  0  0  0
 15 14  1  0  0  0  0
 16 17  1  0  0  0  0
 17 22  1  0  0  0  0
 18 17  2  0  0  0  0
 18 19  1  0  0  0  0
 19 20  2  0  0  0  0
 20 21  1  0  0  0  0
 20 23  1  0  0  0  0
 21 25  1  0  0  0  0
 22 21  2  0  0  0  0
 23 24  1  0  0  0  0
 26 25  1  0  0  0  0
M  END
>  <MODEL>
6

>  <REMARK>
 VINA RESULT:    -5.764      4.304      7.783
 INTER + INTRA:         -10.361
 INTER:                  -8.882
 INTRA:                  -1.479
 UNBOUND:                -0.889
  Name = CHEMBL58719
  14 active torsions:
  status: ('A' for Active; 'I' for Inactive)
    1  A    between atoms: C_1  and  C_2
    2  A    between atoms: C_2  and  C_3
    3  A    between atoms: C_3  and  C_4
    4  A    between atoms: C_4  and  C_5
    5  A    between atoms: C_5  and  C_6
    6  A    between atoms: C_6  and  C_7
    7  A    between atoms: C_7  and  C_8
    8  A    between atoms: C_8  and  N_9
    9  A    between atoms: C_10  and  S_11
   10  A    between atoms: N_12  and  C_13
   11  A    between atoms: C_13  and  C_14
   12  A    between atoms: C_17  and  O_18
   13  A    between atoms: C_19  and  O_20
   14  A    between atoms: O_20  and  C_21
                            x       y       z     vdW  Elec       q    Type
                         _______ _______ _______ _____ _____    ______ ____

>  <TORSDO>
F 12

>  <SCORE>
-5.764

>  <RMSD_LB>
4.304

>  <RMSD_UB>
7.783

$$$$
CHEMBL58719
 OpenBabel10172500303D

 26 26  0  0  1  0  0  0  0  0999 V2000
  135.7400  135.2180  144.4240 N   0  0  0  0  0  0  0  0  0  0  0  0
  134.7440  135.8550  144.9220 C   0  0  1  0  0  3  0  0  0  0  0  0
  133.8020  135.2490  145.6970 N   0  0  0  0  0  0  0  0  0  0  0  0
  135.8220  134.2610  144.6390 H   0  0  0  0  0  0  0  0  0  0  0  0
  132.9360  135.7040  145.8050 H   0  0  0  0  0  0  0  0  0  0  0  0
  134.4090  137.5660  144.7390 S   0  0  0  0  0  0  0  0  0  0  0  0
  133.2980  137.8890  145.4530 H   0  0  0  0  0  0  0  0  0  0  0  0
  136.7530  135.8050  143.5660 C   0  0  0  0  0  2  0  0  0  0  0  0
  137.8810  134.7960  143.3660 C   0  0  0  0  0  2  0  0  0  0  0  0
  137.8430  134.2070  141.9590 C   0  0  0  0  0  2  0  0  0  0  0  0
  136.9710  132.9550  141.9010 C   0  0  0  0  0  2  0  0  0  0  0  0
  137.3210  131.9960  143.0380 C   0  0  0  0  0  2  0  0  0  0  0  0
  136.0950  131.6760  143.8880 C   0  0  0  0  0  2  0  0  0  0  0  0
  137.1510  132.3530  146.0670 C   0  0  0  0  0  1  0  0  0  0  0  0
  136.4970  131.2230  145.2920 C   0  0  0  0  0  2  0  0  0  0  0  0
  133.9870  133.9860  146.3680 C   0  0  0  0  0  2  0  0  0  0  0  0
  133.7370  134.1440  147.8500 C   0  0  0  0  0  0  0  0  0  0  0  0
  132.7220  133.4170  148.4880 C   0  0  0  0  0  3  0  0  0  0  0  0
  132.4730  133.5930  149.8500 C   0  0  0  0  0  3  0  0  0  0  0  0
  133.2280  134.5050  150.5960 C   0  0  0  0  0  0  0  0  0  0  0  0
  134.2430  135.2470  149.9830 C   0  0  0  0  0  0  0  0  0  0  0  0
  134.4850  135.0560  148.6140 C   0  0  0  0  0  3  0  0  0  0  0  0
  132.9420  134.6420  151.9260 O   0  0  0  0  0  0  0  0  0  0  0  0
  133.6150  134.5140  152.5660 H   0  0  0  0  0  0  0  0  0  0  0  0
  135.0730  136.1800  150.5440 O   0  0  0  0  0  0  0  0  0  0  0  0
  136.2440  135.7260  151.2080 C   0  0  0  0  0  1  0  0  0  0  0  0
  1  4  1  0  0  0  0
  1  2  1  0  0  0  0
  2  6  1  1  0  0  0
  2  3  1  0  0  0  0
  3  5  1  0  0  0  0
  3 16  1  0  0  0  0
  6  7  1  0  0  0  0
  8  1  1  0  0  0  0
  9  8  1  0  0  0  0
 10  9  1  0  0  0  0
 11 10  1  0  0  0  0
 11 12  1  0  0  0  0
 12 13  1  0  0  0  0
 13 15  1  0  0  0  0
 15 14  1  0  0  0  0
 16 17  1  0  0  0  0
 17 18  2  0  0  0  0
 17 22  1  0  0  0  0
 18 19  1  0  0  0  0
 19 20  2  0  0  0  0
 20 23  1  0  0  0  0
 21 25  1  0  0  0  0
 21 20  1  0  0  0  0
 22 21  2  0  0  0  0
 23 24  1  0  0  0  0
 25 26  1  0  0  0  0
M  END
>  <MODEL>
7

>  <REMARK>
 VINA RESULT:    -5.706     10.107     12.818
 INTER + INTRA:         -10.264
 INTER:                  -9.117
 INTRA:                  -1.147
 UNBOUND:                -0.889
  Name = CHEMBL58719
  14 active torsions:
  status: ('A' for Active; 'I' for Inactive)
    1  A    between atoms: C_1  and  C_2
    2  A    between atoms: C_2  and  C_3
    3  A    between atoms: C_3  and  C_4
    4  A    between atoms: C_4  and  C_5
    5  A    between atoms: C_5  and  C_6
    6  A    between atoms: C_6  and  C_7
    7  A    between atoms: C_7  and  C_8
    8  A    between atoms: C_8  and  N_9
    9  A    between atoms: C_10  and  S_11
   10  A    between atoms: N_12  and  C_13
   11  A    between atoms: C_13  and  C_14
   12  A    between atoms: C_17  and  O_18
   13  A    between atoms: C_19  and  O_20
   14  A    between atoms: O_20  and  C_21
                            x       y       z     vdW  Elec       q    Type
                         _______ _______ _______ _____ _____    ______ ____

>  <TORSDO>
F 12

>  <SCORE>
-5.706

>  <RMSD_LB>
10.107

>  <RMSD_UB>
12.818

$$$$
CHEMBL58719
 OpenBabel10172500303D

 26 26  0  0  1  0  0  0  0  0999 V2000
  144.7350  136.8370  150.4410 N   0  0  0  0  0  0  0  0  0  0  0  0
  145.5820  137.4660  149.7120 C   0  0  1  0  0  3  0  0  0  0  0  0
  146.8960  137.5810  150.0510 N   0  0  0  0  0  0  0  0  0  0  0  0
  145.0690  136.4070  151.2600 H   0  0  0  0  0  0  0  0  0  0  0  0
  147.4190  138.2950  149.6220 H   0  0  0  0  0  0  0  0  0  0  0  0
  145.2500  138.2590  148.1840 S   0  0  0  0  0  0  0  0  0  0  0  0
  144.1870  137.6600  147.5850 H   0  0  0  0  0  0  0  0  0  0  0  0
  143.3180  136.7120  150.1450 C   0  0  0  0  0  2  0  0  0  0  0  0
  142.5180  137.4000  151.2470 C   0  0  0  0  0  2  0  0  0  0  0  0
  142.7590  138.9070  151.2370 C   0  0  0  0  0  2  0  0  0  0  0  0
  143.5670  139.3510  152.4530 C   0  0  0  0  0  2  0  0  0  0  0  0
  144.8220  140.1090  152.0230 C   0  0  0  0  0  2  0  0  0  0  0  0
  144.5140  141.1000  150.9040 C   0  0  0  0  0  2  0  0  0  0  0  0
  147.0180  141.1820  150.7000 C   0  0  0  0  0  1  0  0  0  0  0  0
  145.7270  141.9740  150.5870 C   0  0  0  0  0  2  0  0  0  0  0  0
  147.5720  136.7270  150.9970 C   0  0  0  0  0  2  0  0  0  0  0  0
  147.4780  137.3150  152.3860 C   0  0  0  0  0  0  0  0  0  0  0  0
  146.5330  136.8370  153.3040 C   0  0  0  0  0  3  0  0  0  0  0  0
  146.4280  137.4080  154.5740 C   0  0  0  0  0  3  0  0  0  0  0  0
  147.2590  138.4710  154.9440 C   0  0  0  0  0  0  0  0  0  0  0  0
  148.2060  138.9710  154.0440 C   0  0  0  0  0  0  0  0  0  0  0  0
  148.3040  138.3840  152.7730 C   0  0  0  0  0  3  0  0  0  0  0  0
  147.1140  138.9960  156.1980 O   0  0  0  0  0  0  0  0  0  0  0  0
  146.5400  139.7240  156.3380 H   0  0  0  0  0  0  0  0  0  0  0  0
  149.0920  139.9990  154.2230 O   0  0  0  0  0  0  0  0  0  0  0  0
  148.6110  141.3300  154.1130 C   0  0  0  0  0  1  0  0  0  0  0  0
  1  4  1  0  0  0  0
  2  6  1  6  0  0  0
  2  3  1  0  0  0  0
  2  1  1  0  0  0  0
  3 16  1  0  0  0  0
  5  3  1  0  0  0  0
  7  6  1  0  0  0  0
  8  1  1  0  0  0  0
  8  9  1  0  0  0  0
 10  9  1  0  0  0  0
 10 11  1  0  0  0  0
 12 11  1  0  0  0  0
 13 12  1  0  0  0  0
 15 14  1  0  0  0  0
 15 13  1  0  0  0  0
 16 17  1  0  0  0  0
 17 22  2  0  0  0  0
 17 18  1  0  0  0  0
 18 19  2  0  0  0  0
 19 20  1  0  0  0  0
 20 23  1  0  0  0  0
 21 25  1  0  0  0  0
 21 20  2  0  0  0  0
 22 21  1  0  0  0  0
 23 24  1  0  0  0  0
 26 25  1  0  0  0  0
M  END
>  <MODEL>
8

>  <REMARK>
 VINA RESULT:    -5.691      4.632      7.276
 INTER + INTRA:         -10.240
 INTER:                  -8.588
 INTRA:                  -1.652
 UNBOUND:                -0.889
  Name = CHEMBL58719
  14 active torsions:
  status: ('A' for Active; 'I' for Inactive)
    1  A    between atoms: C_1  and  C_2
    2  A    between atoms: C_2  and  C_3
    3  A    between atoms: C_3  and  C_4
    4  A    between atoms: C_4  and  C_5
    5  A    between atoms: C_5  and  C_6
    6  A    between atoms: C_6  and  C_7
    7  A    between atoms: C_7  and  C_8
    8  A    between atoms: C_8  and  N_9
    9  A    between atoms: C_10  and  S_11
   10  A    between atoms: N_12  and  C_13
   11  A    between atoms: C_13  and  C_14
   12  A    between atoms: C_17  and  O_18
   13  A    between atoms: C_19  and  O_20
   14  A    between atoms: O_20  and  C_21
                            x       y       z     vdW  Elec       q    Type
                         _______ _______ _______ _____ _____    ______ ____

>  <TORSDO>
F 12

>  <SCORE>
-5.691

>  <RMSD_LB>
4.632

>  <RMSD_UB>
7.276

$$$$
CHEMBL58719
 OpenBabel10172500303D

 26 26  0  0  1  0  0  0  0  0999 V2000
  137.1770  137.2070  149.7920 N   0  0  0  0  0  0  0  0  0  0  0  0
  137.8480  138.2650  149.5170 C   0  0  1  0  0  3  0  0  0  0  0  0
  139.1130  138.4700  149.9790 N   0  0  0  0  0  0  0  0  0  0  0  0
  137.6180  136.5180  150.3390 H   0  0  0  0  0  0  0  0  0  0  0  0
  139.4560  139.3920  149.9800 H   0  0  0  0  0  0  0  0  0  0  0  0
  137.3150  139.6020  148.5170 S   0  0  0  0  0  0  0  0  0  0  0  0
  136.9820  140.6560  149.3080 H   0  0  0  0  0  0  0  0  0  0  0  0
  135.8160  136.9520  149.3550 C   0  0  0  0  0  2  0  0  0  0  0  0
  135.2370  135.8040  150.1780 C   0  0  0  0  0  2  0  0  0  0  0  0
  133.7190  135.9140  150.2750 C   0  0  0  0  0  2  0  0  0  0  0  0
  133.0270  134.8240  149.4600 C   0  0  0  0  0  2  0  0  0  0  0  0
  133.3320  133.4410  150.0340 C   0  0  0  0  0  2  0  0  0  0  0  0
  133.9890  132.5420  148.9900 C   0  0  0  0  0  2  0  0  0  0  0  0
  135.5140  133.2930  147.1370 C   0  0  0  0  0  1  0  0  0  0  0  0
  134.0800  133.2420  147.6340 C   0  0  0  0  0  2  0  0  0  0  0  0
  139.9820  137.4280  150.4670 C   0  0  0  0  0  2  0  0  0  0  0  0
  140.4680  137.7660  151.8580 C   0  0  0  0  0  0  0  0  0  0  0  0
  141.7880  137.4910  152.2420 C   0  0  0  0  0  3  0  0  0  0  0  0
  142.2210  137.7740  153.5390 C   0  0  0  0  0  3  0  0  0  0  0  0
  141.3410  138.3280  154.4750 C   0  0  0  0  0  0  0  0  0  0  0  0
  140.0170  138.6070  154.1180 C   0  0  0  0  0  0  0  0  0  0  0  0
  139.5980  138.3220  152.8100 C   0  0  0  0  0  3  0  0  0  0  0  0
  141.8140  138.5830  155.7320 O   0  0  0  0  0  0  0  0  0  0  0  0
  142.5000  139.2100  155.8560 H   0  0  0  0  0  0  0  0  0  0  0  0
  139.0200  139.1380  154.8920 O   0  0  0  0  0  0  0  0  0  0  0  0
  138.0000  138.2710  155.3640 C   0  0  0  0  0  1  0  0  0  0  0  0
  1  4  1  0  0  0  0
  2  6  1  6  0  0  0
  2  1  1  0  0  0  0
  2  3  1  0  0  0  0
  3  5  1  0  0  0  0
  3 16  1  0  0  0  0
  6  7  1  0  0  0  0
  8  1  1  0  0  0  0
  8  9  1  0  0  0  0
  9 10  1  0  0  0  0
 11 12  1  0  0  0  0
 11 10  1  0  0  0  0
 13 12  1  0  0  0  0
 14 15  1  0  0  0  0
 15 13  1  0  0  0  0
 16 17  1  0  0  0  0
 17 18  2  0  0  0  0
 17 22  1  0  0  0  0
 18 19  1  0  0  0  0
 19 20  2  0  0  0  0
 20 23  1  0  0  0  0
 21 20  1  0  0  0  0
 21 25  1  0  0  0  0
 22 21  2  0  0  0  0
 23 24  1  0  0  0  0
 25 26  1  0  0  0  0
M  END
>  <MODEL>
9

>  <REMARK>
 VINA RESULT:    -5.619      5.273     10.275
 INTER + INTRA:         -10.122
 INTER:                  -9.233
 INTRA:                  -0.889
 UNBOUND:                -0.889
  Name = CHEMBL58719
  14 active torsions:
  status: ('A' for Active; 'I' for Inactive)
    1  A    between atoms: C_1  and  C_2
    2  A    between atoms: C_2  and  C_3
    3  A    between atoms: C_3  and  C_4
    4  A    between atoms: C_4  and  C_5
    5  A    between atoms: C_5  and  C_6
    6  A    between atoms: C_6  and  C_7
    7  A    between atoms: C_7  and  C_8
    8  A    between atoms: C_8  and  N_9
    9  A    between atoms: C_10  and  S_11
   10  A    between atoms: N_12  and  C_13
   11  A    between atoms: C_13  and  C_14
   12  A    between atoms: C_17  and  O_18
   13  A    between atoms: C_19  and  O_20
   14  A    between atoms: O_20  and  C_21
                            x       y       z     vdW  Elec       q    Type
                         _______ _______ _______ _____ _____    ______ ____

>  <TORSDO>
F 12

>  <SCORE>
-5.619

>  <RMSD_LB>
5.273

>  <RMSD_UB>
10.275

$$$$
