CHEMBL1605557
 OpenBabel10172500563D

 26 27  0  0  0  0  0  0  0  0999 V2000
  141.6700  139.5920  151.7060 N   0  0  0  0  0  0  0  0  0  0  0  0
  140.9690  138.5520  152.2770 C   0  0  0  0  0  0  0  0  0  0  0  0
  141.3720  137.3940  152.2880 O   0  0  0  0  0  0  0  0  0  0  0  0
  141.2850  140.4980  151.7350 H   0  0  0  0  0  0  0  0  0  0  0  0
  142.9550  139.3970  151.0670 C   0  0  0  0  0  2  0  0  0  0  0  0
  146.1530  141.3870  153.2310 C   0  0  0  0  0  0  0  0  0  0  0  0
  145.7290  141.8520  151.9790 C   0  0  0  0  0  3  0  0  0  0  0  0
  144.7010  141.2100  151.2810 C   0  0  0  0  0  3  0  0  0  0  0  0
  144.0840  140.0700  151.8040 C   0  0  0  0  0  0  0  0  0  0  0  0
  144.5110  139.6020  153.0530 C   0  0  0  0  0  3  0  0  0  0  0  0
  145.5240  140.2540  153.7760 C   0  0  0  0  0  0  0  0  0  0  0  0
  148.5110  141.5780  153.4890 C   0  0  0  0  0  1  0  0  0  0  0  0
  147.2020  141.9440  153.9100 O   0  0  0  0  0  0  0  0  0  0  0  0
  145.8090  139.6450  154.9740 O   0  0  0  0  0  0  0  0  0  0  0  0
  146.5660  138.4420  154.9150 C   0  0  0  0  0  1  0  0  0  0  0  0
  139.6320  138.9690  152.8510 C   0  0  0  0  0  2  0  0  0  0  0  0
  139.5770  138.7060  154.3540 C   0  0  0  0  0  2  0  0  0  0  0  0
  138.5700  137.7200  154.6950 N   0  0  0  0  0  0  0  0  0  0  0  0
  137.3620  138.0650  155.2690 C   0  0  0  0  0  0  0  0  0  0  0  0
  137.0510  139.2280  155.4970 O   0  0  0  0  0  0  0  0  0  0  0  0
  138.7530  136.7700  154.5100 H   0  0  0  0  0  0  0  0  0  0  0  0
  136.5050  136.9370  155.5670 C   0  0  0  0  0  0  0  0  0  0  0  0
  136.5260  136.0370  156.6180 C   0  0  0  0  0  3  0  0  0  0  0  0
  135.4480  135.1400  156.4150 C   0  0  0  0  0  3  0  0  0  0  0  0
  134.8350  135.5400  155.2520 C   0  0  0  0  0  3  0  0  0  0  0  0
  135.4620  136.6260  154.7270 O   0  0  0  0  0  0  0  0  0  0  0  0
  1  4  1  0  0  0  0
  1  2  1  0  0  0  0
  2  3  2  0  0  0  0
  2 16  1  0  0  0  0
  5  1  1  0  0  0  0
  5  9  1  0  0  0  0
  6 11  1  0  0  0  0
  6 13  1  0  0  0  0
  7  6  2  0  0  0  0
  8  9  2  0  0  0  0
  8  7  1  0  0  0  0
  9 10  1  0  0  0  0
 10 11  2  0  0  0  0
 11 14  1  0  0  0  0
 12 13  1  0  0  0  0
 15 14  1  0  0  0  0
 16 17  1  0  0  0  0
 17 18  1  0  0  0  0
 18 19  1  0  0  0  0
 19 20  2  0  0  0  0
 19 22  1  0  0  0  0
 21 18  1  0  0  0  0
 22 23  2  0  0  0  0
 24 23  1  0  0  0  0
 25 24  2  0  0  0  0
 26 25  1  0  0  0  0
 26 22  1  0  0  0  0
M  END
>  <MODEL>
1

>  <REMARK>
 VINA RESULT:    -6.766      0.000      0.000
 INTER + INTRA:         -10.841
 INTER:                 -10.150
 INTRA:                  -0.691
 UNBOUND:                -0.911
  Name = CHEMBL1605557
  10 active torsions:
  status: ('A' for Active; 'I' for Inactive)
    1  A    between atoms: C_1  and  O_2
    2  A    between atoms: O_2  and  C_3
    3  A    between atoms: C_6  and  C_7
    4  A    between atoms: C_7  and  N_8
    5  A    between atoms: C_9  and  C_11
    6  A    between atoms: C_11  and  C_12
    7  A    between atoms: C_12  and  N_13
    8  A    between atoms: C_14  and  C_16
    9  A    between atoms: C_22  and  O_23
   10  A    between atoms: O_23  and  C_24
                            x       y       z     vdW  Elec       q    Type
                         _______ _______ _______ _____ _____    ______ ____

>  <TORSDO>
F 8

>  <SCORE>
-6.766

>  <RMSD_LB>
0.000

>  <RMSD_UB>
0.000

$$$$
CHEMBL1605557
 OpenBabel10172500563D

 26 27  0  0  0  0  0  0  0  0999 V2000
  137.1260  136.0050  151.1550 N   0  0  0  0  0  0  0  0  0  0  0  0
  136.0300  135.6900  151.9300 C   0  0  0  0  0  0  0  0  0  0  0  0
  135.3940  136.5220  152.5670 O   0  0  0  0  0  0  0  0  0  0  0  0
  137.5880  135.2840  150.6690 H   0  0  0  0  0  0  0  0  0  0  0  0
  137.6190  137.3610  151.0320 C   0  0  0  0  0  2  0  0  0  0  0  0
  141.2620  138.1260  153.2720 C   0  0  0  0  0  0  0  0  0  0  0  0
  141.3090  137.6990  151.9380 C   0  0  0  0  0  3  0  0  0  0  0  0
  140.1370  137.4500  151.2180 C   0  0  0  0  0  3  0  0  0  0  0  0
  138.8830  137.5980  151.8180 C   0  0  0  0  0  0  0  0  0  0  0  0
  138.8350  138.0200  153.1520 C   0  0  0  0  0  3  0  0  0  0  0  0
  140.0060  138.3000  153.8780 C   0  0  0  0  0  0  0  0  0  0  0  0
  143.5010  137.4740  153.7450 C   0  0  0  0  0  1  0  0  0  0  0  0
  142.3860  138.3100  154.0300 O   0  0  0  0  0  0  0  0  0  0  0  0
  139.7570  138.6950  155.1700 O   0  0  0  0  0  0  0  0  0  0  0  0
  138.6940  138.0350  155.8470 C   0  0  0  0  0  1  0  0  0  0  0  0
  135.7120  134.2100  151.9510 C   0  0  0  0  0  2  0  0  0  0  0  0
  134.3020  133.9470  151.4280 C   0  0  0  0  0  2  0  0  0  0  0  0
  133.9440  134.8560  150.3550 N   0  0  0  0  0  0  0  0  0  0  0  0
  133.6950  134.4190  149.0690 C   0  0  0  0  0  0  0  0  0  0  0  0
  133.7310  133.2340  148.7580 O   0  0  0  0  0  0  0  0  0  0  0  0
  133.8740  135.8180  150.5510 H   0  0  0  0  0  0  0  0  0  0  0  0
  133.3870  135.4790  148.1330 C   0  0  0  0  0  0  0  0  0  0  0  0
  132.7550  136.6960  148.3190 C   0  0  0  0  0  3  0  0  0  0  0  0
  132.7280  137.3450  147.0600 C   0  0  0  0  0  3  0  0  0  0  0  0
  133.3380  136.4860  146.1770 C   0  0  0  0  0  3  0  0  0  0  0  0
  133.7420  135.3540  146.8110 O   0  0  0  0  0  0  0  0  0  0  0  0
  1  2  1  0  0  0  0
  2 16  1  0  0  0  0
  2  3  2  0  0  0  0
  4  1  1  0  0  0  0
  5  1  1  0  0  0  0
  5  9  1  0  0  0  0
  6 11  1  0  0  0  0
  6 13  1  0  0  0  0
  7  6  2  0  0  0  0
  8  9  2  0  0  0  0
  8  7  1  0  0  0  0
  9 10  1  0  0  0  0
 10 11  2  0  0  0  0
 11 14  1  0  0  0  0
 12 13  1  0  0  0  0
 14 15  1  0  0  0  0
 17 16  1  0  0  0  0
 18 21  1  0  0  0  0
 18 17  1  0  0  0  0
 19 18  1  0  0  0  0
 20 19  2  0  0  0  0
 22 23  2  0  0  0  0
 22 19  1  0  0  0  0
 24 23  1  0  0  0  0
 25 26  1  0  0  0  0
 25 24  2  0  0  0  0
 26 22  1  0  0  0  0
M  END
>  <MODEL>
2

>  <REMARK>
 VINA RESULT:    -6.595      4.919      7.160
 INTER + INTRA:         -10.590
 INTER:                  -9.657
 INTRA:                  -0.933
 UNBOUND:                -0.911
  Name = CHEMBL1605557
  10 active torsions:
  status: ('A' for Active; 'I' for Inactive)
    1  A    between atoms: C_1  and  O_2
    2  A    between atoms: O_2  and  C_3
    3  A    between atoms: C_6  and  C_7
    4  A    between atoms: C_7  and  N_8
    5  A    between atoms: C_9  and  C_11
    6  A    between atoms: C_11  and  C_12
    7  A    between atoms: C_12  and  N_13
    8  A    between atoms: C_14  and  C_16
    9  A    between atoms: C_22  and  O_23
   10  A    between atoms: O_23  and  C_24
                            x       y       z     vdW  Elec       q    Type
                         _______ _______ _______ _____ _____    ______ ____

>  <TORSDO>
F 8

>  <SCORE>
-6.595

>  <RMSD_LB>
4.919

>  <RMSD_UB>
7.160

$$$$
CHEMBL1605557
 OpenBabel10172500563D

 26 27  0  0  0  0  0  0  0  0999 V2000
  133.4000  138.1300  146.2430 N   0  0  0  0  0  0  0  0  0  0  0  0
  133.7190  138.5090  144.9570 C   0  0  0  0  0  0  0  0  0  0  0  0
  133.2000  138.0180  143.9610 O   0  0  0  0  0  0  0  0  0  0  0  0
  133.8570  138.5700  146.9960 H   0  0  0  0  0  0  0  0  0  0  0  0
  132.4140  137.1070  146.5230 C   0  0  0  0  0  2  0  0  0  0  0  0
  133.0300  135.0590  150.3030 C   0  0  0  0  0  0  0  0  0  0  0  0
  132.8470  136.4470  150.2550 C   0  0  0  0  0  3  0  0  0  0  0  0
  132.6520  137.1070  149.0380 C   0  0  0  0  0  3  0  0  0  0  0  0
  132.6570  136.4010  147.8320 C   0  0  0  0  0  0  0  0  0  0  0  0
  132.8450  135.0140  147.8790 C   0  0  0  0  0  3  0  0  0  0  0  0
  133.0160  134.3360  149.0990 C   0  0  0  0  0  0  0  0  0  0  0  0
  134.6570  134.3270  151.8790 C   0  0  0  0  0  1  0  0  0  0  0  0
  133.2960  134.3880  151.4670 O   0  0  0  0  0  0  0  0  0  0  0  0
  133.1910  132.9830  148.9420 O   0  0  0  0  0  0  0  0  0  0  0  0
  134.3170  132.5680  148.1780 C   0  0  0  0  0  1  0  0  0  0  0  0
  134.8040  139.5640  144.8900 C   0  0  0  0  0  2  0  0  0  0  0  0
  136.1880  138.9220  144.8650 C   0  0  0  0  0  2  0  0  0  0  0  0
  137.0170  139.3780  145.9650 N   0  0  0  0  0  0  0  0  0  0  0  0
  136.9010  138.8630  147.2410 C   0  0  0  0  0  0  0  0  0  0  0  0
  136.1120  137.9670  147.5190 O   0  0  0  0  0  0  0  0  0  0  0  0
  137.6880  140.0780  145.7950 H   0  0  0  0  0  0  0  0  0  0  0  0
  137.7910  139.4690  148.2080 C   0  0  0  0  0  0  0  0  0  0  0  0
  137.6510  140.6120  148.9750 C   0  0  0  0  0  3  0  0  0  0  0  0
  138.8270  140.7310  149.7570 C   0  0  0  0  0  3  0  0  0  0  0  0
  139.6190  139.6600  149.4180 C   0  0  0  0  0  3  0  0  0  0  0  0
  139.0060  138.8870  148.4830 O   0  0  0  0  0  0  0  0  0  0  0  0
  1  5  1  0  0  0  0
  1  4  1  0  0  0  0
  2  1  1  0  0  0  0
  3  2  2  0  0  0  0
  5  9  1  0  0  0  0
  6 13  1  0  0  0  0
  7  6  1  0  0  0  0
  8  7  2  0  0  0  0
  9 10  2  0  0  0  0
  9  8  1  0  0  0  0
 10 11  1  0  0  0  0
 11  6  2  0  0  0  0
 13 12  1  0  0  0  0
 14 11  1  0  0  0  0
 15 14  1  0  0  0  0
 16  2  1  0  0  0  0
 17 16  1  0  0  0  0
 17 18  1  0  0  0  0
 18 19  1  0  0  0  0
 19 20  2  0  0  0  0
 19 22  1  0  0  0  0
 21 18  1  0  0  0  0
 22 26  1  0  0  0  0
 22 23  2  0  0  0  0
 23 24  1  0  0  0  0
 25 24  2  0  0  0  0
 26 25  1  0  0  0  0
M  END
>  <MODEL>
3

>  <REMARK>
 VINA RESULT:    -6.567      7.111     11.829
 INTER + INTRA:         -10.549
 INTER:                  -9.391
 INTRA:                  -1.158
 UNBOUND:                -0.911
  Name = CHEMBL1605557
  10 active torsions:
  status: ('A' for Active; 'I' for Inactive)
    1  A    between atoms: C_1  and  O_2
    2  A    between atoms: O_2  and  C_3
    3  A    between atoms: C_6  and  C_7
    4  A    between atoms: C_7  and  N_8
    5  A    between atoms: C_9  and  C_11
    6  A    between atoms: C_11  and  C_12
    7  A    between atoms: C_12  and  N_13
    8  A    between atoms: C_14  and  C_16
    9  A    between atoms: C_22  and  O_23
   10  A    between atoms: O_23  and  C_24
                            x       y       z     vdW  Elec       q    Type
                         _______ _______ _______ _____ _____    ______ ____

>  <TORSDO>
F 8

>  <SCORE>
-6.567

>  <RMSD_LB>
7.111

>  <RMSD_UB>
11.829

$$$$
CHEMBL1605557
 OpenBabel10172500563D

 26 27  0  0  0  0  0  0  0  0999 V2000
  140.0560  137.9360  153.2170 N   0  0  0  0  0  0  0  0  0  0  0  0
  139.7480  138.5080  154.4320 C   0  0  0  0  0  0  0  0  0  0  0  0
  138.9620  139.4410  154.5590 O   0  0  0  0  0  0  0  0  0  0  0  0
  140.6960  137.1890  153.1910 H   0  0  0  0  0  0  0  0  0  0  0  0
  139.4670  138.3980  151.9770 C   0  0  0  0  0  2  0  0  0  0  0  0
  136.6150  135.6200  150.2410 C   0  0  0  0  0  0  0  0  0  0  0  0
  136.4000  136.1790  151.5080 C   0  0  0  0  0  3  0  0  0  0  0  0
  137.3200  137.0700  152.0680 C   0  0  0  0  0  3  0  0  0  0  0  0
  138.4910  137.4120  151.3880 C   0  0  0  0  0  0  0  0  0  0  0  0
  138.7090  136.8500  150.1230 C   0  0  0  0  0  3  0  0  0  0  0  0
  137.7790  135.9730  149.5380 C   0  0  0  0  0  0  0  0  0  0  0  0
  134.8150  135.1600  148.7520 C   0  0  0  0  0  1  0  0  0  0  0  0
  135.7750  134.6890  149.6910 O   0  0  0  0  0  0  0  0  0  0  0  0
  138.1690  135.5230  148.3010 O   0  0  0  0  0  0  0  0  0  0  0  0
  139.5060  135.0500  148.1840 C   0  0  0  0  0  1  0  0  0  0  0  0
  140.5070  137.9010  155.5940 C   0  0  0  0  0  2  0  0  0  0  0  0
  139.5920  137.6980  156.7980 C   0  0  0  0  0  2  0  0  0  0  0  0
  138.4620  136.8440  156.4820 N   0  0  0  0  0  0  0  0  0  0  0  0
  137.1550  137.2460  156.6760 C   0  0  0  0  0  0  0  0  0  0  0  0
  136.8650  138.3600  157.0970 O   0  0  0  0  0  0  0  0  0  0  0  0
  138.6330  135.9470  156.1150 H   0  0  0  0  0  0  0  0  0  0  0  0
  136.1700  136.2420  156.3340 C   0  0  0  0  0  0  0  0  0  0  0  0
  135.6970  135.8200  155.1030 C   0  0  0  0  0  3  0  0  0  0  0  0
  134.7430  134.8030  155.3540 C   0  0  0  0  0  3  0  0  0  0  0  0
  134.6840  134.6670  156.7210 C   0  0  0  0  0  3  0  0  0  0  0  0
  135.5410  135.5300  157.3270 O   0  0  0  0  0  0  0  0  0  0  0  0
  1  2  1  0  0  0  0
  2  3  2  0  0  0  0
  2 16  1  0  0  0  0
  4  1  1  0  0  0  0
  5  1  1  0  0  0  0
  6  7  1  0  0  0  0
  7  8  2  0  0  0  0
  9  5  1  0  0  0  0
  9  8  1  0  0  0  0
 10  9  2  0  0  0  0
 11 10  1  0  0  0  0
 11  6  2  0  0  0  0
 12 13  1  0  0  0  0
 13  6  1  0  0  0  0
 14 11  1  0  0  0  0
 15 14  1  0  0  0  0
 16 17  1  0  0  0  0
 18 19  1  0  0  0  0
 18 17  1  0  0  0  0
 19 20  2  0  0  0  0
 21 18  1  0  0  0  0
 22 19  1  0  0  0  0
 22 26  1  0  0  0  0
 23 24  1  0  0  0  0
 23 22  2  0  0  0  0
 24 25  2  0  0  0  0
 25 26  1  0  0  0  0
M  END
>  <MODEL>
4

>  <REMARK>
 VINA RESULT:    -6.463      4.666      7.287
 INTER + INTRA:         -10.396
 INTER:                  -9.145
 INTRA:                  -1.252
 UNBOUND:                -0.911
  Name = CHEMBL1605557
  10 active torsions:
  status: ('A' for Active; 'I' for Inactive)
    1  A    between atoms: C_1  and  O_2
    2  A    between atoms: O_2  and  C_3
    3  A    between atoms: C_6  and  C_7
    4  A    between atoms: C_7  and  N_8
    5  A    between atoms: C_9  and  C_11
    6  A    between atoms: C_11  and  C_12
    7  A    between atoms: C_12  and  N_13
    8  A    between atoms: C_14  and  C_16
    9  A    between atoms: C_22  and  O_23
   10  A    between atoms: O_23  and  C_24
                            x       y       z     vdW  Elec       q    Type
                         _______ _______ _______ _____ _____    ______ ____

>  <TORSDO>
F 8

>  <SCORE>
-6.463

>  <RMSD_LB>
4.666

>  <RMSD_UB>
7.287

$$$$
CHEMBL1605557
 OpenBabel10172500563D

 26 27  0  0  0  0  0  0  0  0999 V2000
  134.0810  135.0070  152.6890 N   0  0  0  0  0  0  0  0  0  0  0  0
  134.0610  134.4580  151.4250 C   0  0  0  0  0  0  0  0  0  0  0  0
  134.8780  133.6300  151.0360 O   0  0  0  0  0  0  0  0  0  0  0  0
  133.3920  135.6670  152.9320 H   0  0  0  0  0  0  0  0  0  0  0  0
  135.0830  134.6450  153.6700 C   0  0  0  0  0  2  0  0  0  0  0  0
  137.8910  137.8350  154.5670 C   0  0  0  0  0  0  0  0  0  0  0  0
  137.1700  137.1980  155.5870 C   0  0  0  0  0  3  0  0  0  0  0  0
  136.2640  136.1740  155.2980 C   0  0  0  0  0  3  0  0  0  0  0  0
  136.0350  135.7710  153.9790 C   0  0  0  0  0  0  0  0  0  0  0  0
  136.7510  136.4100  152.9590 C   0  0  0  0  0  3  0  0  0  0  0  0
  137.6850  137.4230  153.2400 C   0  0  0  0  0  0  0  0  0  0  0  0
  140.1110  138.5870  154.9840 C   0  0  0  0  0  1  0  0  0  0  0  0
  138.7320  138.8890  154.8030 O   0  0  0  0  0  0  0  0  0  0  0  0
  138.2820  137.9320  152.1120 O   0  0  0  0  0  0  0  0  0  0  0  0
  137.8940  137.3580  150.8690 C   0  0  0  0  0  1  0  0  0  0  0  0
  132.9560  135.0080  150.5460 C   0  0  0  0  0  2  0  0  0  0  0  0
  132.4830  133.9580  149.5440 C   0  0  0  0  0  2  0  0  0  0  0  0
  133.1350  134.1060  148.2560 N   0  0  0  0  0  0  0  0  0  0  0  0
  133.8740  133.0920  147.6810 C   0  0  0  0  0  0  0  0  0  0  0  0
  134.0020  131.9920  148.2060 O   0  0  0  0  0  0  0  0  0  0  0  0
  133.0450  134.9600  147.7740 H   0  0  0  0  0  0  0  0  0  0  0  0
  134.4740  133.4420  146.4110 C   0  0  0  0  0  0  0  0  0  0  0  0
  134.6370  134.6710  145.7960 C   0  0  0  0  0  3  0  0  0  0  0  0
  135.2970  134.4320  144.5650 C   0  0  0  0  0  3  0  0  0  0  0  0
  135.4940  133.0730  144.4970 C   0  0  0  0  0  3  0  0  0  0  0  0
  135.0020  132.4610  145.6060 O   0  0  0  0  0  0  0  0  0  0  0  0
  1  4  1  0  0  0  0
  1  5  1  0  0  0  0
  2  1  1  0  0  0  0
  3  2  2  0  0  0  0
  5  9  1  0  0  0  0
  6 13  1  0  0  0  0
  6  7  1  0  0  0  0
  8  7  2  0  0  0  0
  9  8  1  0  0  0  0
 10 11  1  0  0  0  0
 10  9  2  0  0  0  0
 11  6  2  0  0  0  0
 13 12  1  0  0  0  0
 14 11  1  0  0  0  0
 15 14  1  0  0  0  0
 16  2  1  0  0  0  0
 17 16  1  0  0  0  0
 18 17  1  0  0  0  0
 19 20  2  0  0  0  0
 19 18  1  0  0  0  0
 21 18  1  0  0  0  0
 22 19  1  0  0  0  0
 23 22  2  0  0  0  0
 24 23  1  0  0  0  0
 25 24  2  0  0  0  0
 25 26  1  0  0  0  0
 26 22  1  0  0  0  0
M  END
>  <MODEL>
5

>  <REMARK>
 VINA RESULT:    -6.388      6.117      9.555
 INTER + INTRA:         -10.286
 INTER:                  -9.385
 INTRA:                  -0.902
 UNBOUND:                -0.911
  Name = CHEMBL1605557
  10 active torsions:
  status: ('A' for Active; 'I' for Inactive)
    1  A    between atoms: C_1  and  O_2
    2  A    between atoms: O_2  and  C_3
    3  A    between atoms: C_6  and  C_7
    4  A    between atoms: C_7  and  N_8
    5  A    between atoms: C_9  and  C_11
    6  A    between atoms: C_11  and  C_12
    7  A    between atoms: C_12  and  N_13
    8  A    between atoms: C_14  and  C_16
    9  A    between atoms: C_22  and  O_23
   10  A    between atoms: O_23  and  C_24
                            x       y       z     vdW  Elec       q    Type
                         _______ _______ _______ _____ _____    ______ ____

>  <TORSDO>
F 8

>  <SCORE>
-6.388

>  <RMSD_LB>
6.117

>  <RMSD_UB>
9.555

$$$$
CHEMBL1605557
 OpenBabel10172500563D

 26 27  0  0  0  0  0  0  0  0999 V2000
  138.0620  137.9470  153.0550 N   0  0  0  0  0  0  0  0  0  0  0  0
  138.8640  137.7820  151.9460 C   0  0  0  0  0  0  0  0  0  0  0  0
  140.0630  137.5350  152.0120 O   0  0  0  0  0  0  0  0  0  0  0  0
  137.1060  138.1440  152.9260 H   0  0  0  0  0  0  0  0  0  0  0  0
  138.5800  137.8400  154.4030 C   0  0  0  0  0  2  0  0  0  0  0  0
  135.9560  135.5780  157.0230 C   0  0  0  0  0  0  0  0  0  0  0  0
  136.9890  136.3690  157.5420 C   0  0  0  0  0  3  0  0  0  0  0  0
  137.8350  137.0950  156.6990 C   0  0  0  0  0  3  0  0  0  0  0  0
  137.6890  137.0320  155.3110 C   0  0  0  0  0  0  0  0  0  0  0  0
  136.6590  136.2380  154.7900 C   0  0  0  0  0  3  0  0  0  0  0  0
  135.7850  135.5250  155.6290 C   0  0  0  0  0  0  0  0  0  0  0  0
  135.1010  135.1190  159.1970 C   0  0  0  0  0  1  0  0  0  0  0  0
  135.1530  134.7980  157.8110 O   0  0  0  0  0  0  0  0  0  0  0  0
  134.8460  134.8010  154.9360 O   0  0  0  0  0  0  0  0  0  0  0  0
  133.9220  135.5410  154.1470 C   0  0  0  0  0  1  0  0  0  0  0  0
  138.1290  137.9770  150.6360 C   0  0  0  0  0  2  0  0  0  0  0  0
  138.0060  136.6590  149.8770 C   0  0  0  0  0  2  0  0  0  0  0  0
  136.7920  135.9450  150.2240 N   0  0  0  0  0  0  0  0  0  0  0  0
  135.6270  136.0700  149.4940 C   0  0  0  0  0  0  0  0  0  0  0  0
  135.5520  136.7670  148.4880 O   0  0  0  0  0  0  0  0  0  0  0  0
  136.7990  135.3490  151.0080 H   0  0  0  0  0  0  0  0  0  0  0  0
  134.5150  135.3060  150.0170 C   0  0  0  0  0  0  0  0  0  0  0  0
  133.2010  135.6680  150.2580 C   0  0  0  0  0  3  0  0  0  0  0  0
  132.5430  134.5210  150.7670 C   0  0  0  0  0  3  0  0  0  0  0  0
  133.4920  133.5270  150.8120 C   0  0  0  0  0  3  0  0  0  0  0  0
  134.6890  133.9870  150.3620 O   0  0  0  0  0  0  0  0  0  0  0  0
  1  5  1  0  0  0  0
  2  3  2  0  0  0  0
  2  1  1  0  0  0  0
  4  1  1  0  0  0  0
  5  9  1  0  0  0  0
  6  7  1  0  0  0  0
  6 13  1  0  0  0  0
  8  7  2  0  0  0  0
  9  8  1  0  0  0  0
 10  9  2  0  0  0  0
 10 11  1  0  0  0  0
 11  6  2  0  0  0  0
 13 12  1  0  0  0  0
 14 11  1  0  0  0  0
 15 14  1  0  0  0  0
 16  2  1  0  0  0  0
 17 18  1  0  0  0  0
 17 16  1  0  0  0  0
 18 21  1  0  0  0  0
 19 22  1  0  0  0  0
 19 18  1  0  0  0  0
 20 19  2  0  0  0  0
 22 23  2  0  0  0  0
 22 26  1  0  0  0  0
 23 24  1  0  0  0  0
 24 25  2  0  0  0  0
 26 25  1  0  0  0  0
M  END
>  <MODEL>
6

>  <REMARK>
 VINA RESULT:    -6.242      5.322      8.704
 INTER + INTRA:         -10.072
 INTER:                  -9.098
 INTRA:                  -0.974
 UNBOUND:                -0.911
  Name = CHEMBL1605557
  10 active torsions:
  status: ('A' for Active; 'I' for Inactive)
    1  A    between atoms: C_1  and  O_2
    2  A    between atoms: O_2  and  C_3
    3  A    between atoms: C_6  and  C_7
    4  A    between atoms: C_7  and  N_8
    5  A    between atoms: C_9  and  C_11
    6  A    between atoms: C_11  and  C_12
    7  A    between atoms: C_12  and  N_13
    8  A    between atoms: C_14  and  C_16
    9  A    between atoms: C_22  and  O_23
   10  A    between atoms: O_23  and  C_24
                            x       y       z     vdW  Elec       q    Type
                         _______ _______ _______ _____ _____    ______ ____

>  <TORSDO>
F 8

>  <SCORE>
-6.242

>  <RMSD_LB>
5.322

>  <RMSD_UB>
8.704

$$$$
CHEMBL1605557
 OpenBabel10172500563D

 26 27  0  0  0  0  0  0  0  0999 V2000
  139.3950  137.3880  150.6620 N   0  0  0  0  0  0  0  0  0  0  0  0
  140.1080  138.3770  151.3040 C   0  0  0  0  0  0  0  0  0  0  0  0
  139.8470  139.5700  151.2040 O   0  0  0  0  0  0  0  0  0  0  0  0
  139.6620  136.4490  150.7890 H   0  0  0  0  0  0  0  0  0  0  0  0
  138.2650  137.6850  149.8060 C   0  0  0  0  0  2  0  0  0  0  0  0
  134.6270  135.6220  150.9800 C   0  0  0  0  0  0  0  0  0  0  0  0
  135.6620  135.8410  151.8980 C   0  0  0  0  0  3  0  0  0  0  0  0
  136.8350  136.5020  151.5200 C   0  0  0  0  0  3  0  0  0  0  0  0
  137.0150  136.9440  150.2060 C   0  0  0  0  0  0  0  0  0  0  0  0
  135.9830  136.7210  149.2860 C   0  0  0  0  0  3  0  0  0  0  0  0
  134.7890  136.0810  149.6620 C   0  0  0  0  0  0  0  0  0  0  0  0
  133.5570  133.5020  151.1430 C   0  0  0  0  0  1  0  0  0  0  0  0
  133.4970  134.9160  151.2930 O   0  0  0  0  0  0  0  0  0  0  0  0
  133.8990  135.9500  148.6230 O   0  0  0  0  0  0  0  0  0  0  0  0
  133.0000  137.0320  148.4100 C   0  0  0  0  0  1  0  0  0  0  0  0
  141.2750  137.8500  152.1140 C   0  0  0  0  0  2  0  0  0  0  0  0
  141.3150  138.4950  153.4960 C   0  0  0  0  0  2  0  0  0  0  0  0
  140.3210  137.9280  154.3880 N   0  0  0  0  0  0  0  0  0  0  0  0
  139.2070  138.6340  154.7980 C   0  0  0  0  0  0  0  0  0  0  0  0
  138.9710  139.7720  154.4100 O   0  0  0  0  0  0  0  0  0  0  0  0
  140.4440  137.0060  154.7120 H   0  0  0  0  0  0  0  0  0  0  0  0
  138.3510  137.9110  155.7130 C   0  0  0  0  0  0  0  0  0  0  0  0
  137.5100  136.8310  155.5050 C   0  0  0  0  0  3  0  0  0  0  0  0
  136.9170  136.5230  156.7550 C   0  0  0  0  0  3  0  0  0  0  0  0
  137.4250  137.4330  157.6510 C   0  0  0  0  0  3  0  0  0  0  0  0
  138.2930  138.2790  157.0370 O   0  0  0  0  0  0  0  0  0  0  0  0
  1  4  1  0  0  0  0
  1  2  1  0  0  0  0
  2 16  1  0  0  0  0
  3  2  2  0  0  0  0
  5  9  1  0  0  0  0
  5  1  1  0  0  0  0
  6 13  1  0  0  0  0
  6  7  1  0  0  0  0
  8  7  2  0  0  0  0
  9  8  1  0  0  0  0
 10 11  1  0  0  0  0
 10  9  2  0  0  0  0
 11  6  2  0  0  0  0
 12 13  1  0  0  0  0
 14 11  1  0  0  0  0
 15 14  1  0  0  0  0
 16 17  1  0  0  0  0
 17 18  1  0  0  0  0
 18 21  1  0  0  0  0
 18 19  1  0  0  0  0
 19 22  1  0  0  0  0
 20 19  2  0  0  0  0
 22 26  1  0  0  0  0
 23 22  2  0  0  0  0
 23 24  1  0  0  0  0
 24 25  2  0  0  0  0
 26 25  1  0  0  0  0
M  END
>  <MODEL>
7

>  <REMARK>
 VINA RESULT:    -6.211      4.119      8.598
 INTER + INTRA:         -10.027
 INTER:                  -8.947
 INTRA:                  -1.080
 UNBOUND:                -0.911
  Name = CHEMBL1605557
  10 active torsions:
  status: ('A' for Active; 'I' for Inactive)
    1  A    between atoms: C_1  and  O_2
    2  A    between atoms: O_2  and  C_3
    3  A    between atoms: C_6  and  C_7
    4  A    between atoms: C_7  and  N_8
    5  A    between atoms: C_9  and  C_11
    6  A    between atoms: C_11  and  C_12
    7  A    between atoms: C_12  and  N_13
    8  A    between atoms: C_14  and  C_16
    9  A    between atoms: C_22  and  O_23
   10  A    between atoms: O_23  and  C_24
                            x       y       z     vdW  Elec       q    Type
                         _______ _______ _______ _____ _____    ______ ____

>  <TORSDO>
F 8

>  <SCORE>
-6.211

>  <RMSD_LB>
4.119

>  <RMSD_UB>
8.598

$$$$
CHEMBL1605557
 OpenBabel10172500563D

 26 27  0  0  0  0  0  0  0  0999 V2000
  134.1580  135.8230  151.0950 N   0  0  0  0  0  0  0  0  0  0  0  0
  134.4180  134.5760  151.6210 C   0  0  0  0  0  0  0  0  0  0  0  0
  133.7120  133.5950  151.4130 O   0  0  0  0  0  0  0  0  0  0  0  0
  134.7700  136.5650  151.3040 H   0  0  0  0  0  0  0  0  0  0  0  0
  133.0130  136.0760  150.2440 C   0  0  0  0  0  2  0  0  0  0  0  0
  134.1190  137.6260  146.3400 C   0  0  0  0  0  0  0  0  0  0  0  0
  132.7820  137.3580  146.6590 C   0  0  0  0  0  3  0  0  0  0  0  0
  132.4260  136.8570  147.9140 C   0  0  0  0  0  3  0  0  0  0  0  0
  133.3990  136.5860  148.8790 C   0  0  0  0  0  0  0  0  0  0  0  0
  134.7380  136.8490  148.5590 C   0  0  0  0  0  3  0  0  0  0  0  0
  135.1050  137.3780  147.3100 C   0  0  0  0  0  0  0  0  0  0  0  0
  133.8230  139.1630  144.5460 C   0  0  0  0  0  1  0  0  0  0  0  0
  134.5140  138.0480  145.0980 O   0  0  0  0  0  0  0  0  0  0  0  0
  136.4600  137.5620  147.1810 O   0  0  0  0  0  0  0  0  0  0  0  0
  137.1370  138.1320  148.2950 C   0  0  0  0  0  1  0  0  0  0  0  0
  135.6390  134.5420  152.5160 C   0  0  0  0  0  2  0  0  0  0  0  0
  136.0900  135.9540  152.8770 C   0  0  0  0  0  2  0  0  0  0  0  0
  136.1080  136.1670  154.3130 N   0  0  0  0  0  0  0  0  0  0  0  0
  137.0430  136.9760  154.9280 C   0  0  0  0  0  0  0  0  0  0  0  0
  137.8960  137.5910  154.2990 O   0  0  0  0  0  0  0  0  0  0  0  0
  135.4290  135.7190  154.8670 H   0  0  0  0  0  0  0  0  0  0  0  0
  136.9190  137.0340  156.3690 C   0  0  0  0  0  0  0  0  0  0  0  0
  136.9740  136.0340  157.3230 C   0  0  0  0  0  3  0  0  0  0  0  0
  136.7980  136.6560  158.5840 C   0  0  0  0  0  3  0  0  0  0  0  0
  136.6390  137.9970  158.3280 C   0  0  0  0  0  3  0  0  0  0  0  0
  136.7100  138.2420  156.9920 O   0  0  0  0  0  0  0  0  0  0  0  0
  1  4  1  0  0  0  0
  1  2  1  0  0  0  0
  2 16  1  0  0  0  0
  3  2  2  0  0  0  0
  5  1  1  0  0  0  0
  6  7  2  0  0  0  0
  6 11  1  0  0  0  0
  7  8  1  0  0  0  0
  8  9  2  0  0  0  0
  9  5  1  0  0  0  0
 10  9  1  0  0  0  0
 11 10  2  0  0  0  0
 12 13  1  0  0  0  0
 13  6  1  0  0  0  0
 14 11  1  0  0  0  0
 14 15  1  0  0  0  0
 16 17  1  0  0  0  0
 17 18  1  0  0  0  0
 18 21  1  0  0  0  0
 18 19  1  0  0  0  0
 19 22  1  0  0  0  0
 20 19  2  0  0  0  0
 22 26  1  0  0  0  0
 22 23  2  0  0  0  0
 23 24  1  0  0  0  0
 25 24  2  0  0  0  0
 26 25  1  0  0  0  0
M  END
>  <MODEL>
8

>  <REMARK>
 VINA RESULT:    -6.146      6.796      9.761
 INTER + INTRA:          -9.931
 INTER:                  -9.268
 INTRA:                  -0.663
 UNBOUND:                -0.911
  Name = CHEMBL1605557
  10 active torsions:
  status: ('A' for Active; 'I' for Inactive)
    1  A    between atoms: C_1  and  O_2
    2  A    between atoms: O_2  and  C_3
    3  A    between atoms: C_6  and  C_7
    4  A    between atoms: C_7  and  N_8
    5  A    between atoms: C_9  and  C_11
    6  A    between atoms: C_11  and  C_12
    7  A    between atoms: C_12  and  N_13
    8  A    between atoms: C_14  and  C_16
    9  A    between atoms: C_22  and  O_23
   10  A    between atoms: O_23  and  C_24
                            x       y       z     vdW  Elec       q    Type
                         _______ _______ _______ _____ _____    ______ ____

>  <TORSDO>
F 8

>  <SCORE>
-6.146

>  <RMSD_LB>
6.796

>  <RMSD_UB>
9.761

$$$$
CHEMBL1605557
 OpenBabel10172500563D

 26 27  0  0  0  0  0  0  0  0999 V2000
  132.8090  135.9510  146.8350 N   0  0  0  0  0  0  0  0  0  0  0  0
  133.7390  135.3240  147.6350 C   0  0  0  0  0  0  0  0  0  0  0  0
  134.5730  135.9270  148.3010 O   0  0  0  0  0  0  0  0  0  0  0  0
  132.1680  135.4020  146.3290 H   0  0  0  0  0  0  0  0  0  0  0  0
  132.7430  137.3930  146.7160 C   0  0  0  0  0  2  0  0  0  0  0  0
  134.3920  138.8640  142.9760 C   0  0  0  0  0  0  0  0  0  0  0  0
  133.7430  139.7270  143.8690 C   0  0  0  0  0  3  0  0  0  0  0  0
  133.2100  139.2530  145.0720 C   0  0  0  0  0  3  0  0  0  0  0  0
  133.2890  137.8990  145.4050 C   0  0  0  0  0  0  0  0  0  0  0  0
  133.9320  137.0340  144.5110 C   0  0  0  0  0  3  0  0  0  0  0  0
  134.4960  137.5030  143.3120 C   0  0  0  0  0  0  0  0  0  0  0  0
  133.9460  139.9620  140.9120 C   0  0  0  0  0  1  0  0  0  0  0  0
  134.8620  139.2760  141.7590 O   0  0  0  0  0  0  0  0  0  0  0  0
  135.0780  136.5080  142.5650 O   0  0  0  0  0  0  0  0  0  0  0  0
  136.0000  135.6600  143.2390 C   0  0  0  0  0  1  0  0  0  0  0  0
  133.6600  133.8120  147.5800 C   0  0  0  0  0  2  0  0  0  0  0  0
  132.9740  133.2560  148.8250 C   0  0  0  0  0  2  0  0  0  0  0  0
  133.7090  133.5720  150.0360 N   0  0  0  0  0  0  0  0  0  0  0  0
  133.1650  134.3280  151.0550 C   0  0  0  0  0  0  0  0  0  0  0  0
  132.0160  134.7540  151.0170 O   0  0  0  0  0  0  0  0  0  0  0  0
  134.6280  133.2340  150.1350 H   0  0  0  0  0  0  0  0  0  0  0  0
  134.0650  134.5630  152.1640 C   0  0  0  0  0  0  0  0  0  0  0  0
  135.4270  134.3460  152.2860 C   0  0  0  0  0  3  0  0  0  0  0  0
  135.7960  134.7640  153.5880 C   0  0  0  0  0  3  0  0  0  0  0  0
  134.6400  135.2060  154.1880 C   0  0  0  0  0  3  0  0  0  0  0  0
  133.5850  135.0910  153.3390 O   0  0  0  0  0  0  0  0  0  0  0  0
  1  2  1  0  0  0  0
  2  3  2  0  0  0  0
  4  1  1  0  0  0  0
  5  1  1  0  0  0  0
  6 11  2  0  0  0  0
  6  7  1  0  0  0  0
  7  8  2  0  0  0  0
  8  9  1  0  0  0  0
  9  5  1  0  0  0  0
 10  9  2  0  0  0  0
 11 10  1  0  0  0  0
 12 13  1  0  0  0  0
 13  6  1  0  0  0  0
 14 15  1  0  0  0  0
 14 11  1  0  0  0  0
 16  2  1  0  0  0  0
 16 17  1  0  0  0  0
 17 18  1  0  0  0  0
 18 21  1  0  0  0  0
 18 19  1  0  0  0  0
 19 22  1  0  0  0  0
 20 19  2  0  0  0  0
 22 23  2  0  0  0  0
 22 26  1  0  0  0  0
 23 24  1  0  0  0  0
 24 25  2  0  0  0  0
 26 25  1  0  0  0  0
M  END
>  <MODEL>
9

>  <REMARK>
 VINA RESULT:    -6.124      9.107     11.675
 INTER + INTRA:          -9.899
 INTER:                  -8.988
 INTRA:                  -0.911
 UNBOUND:                -0.911
  Name = CHEMBL1605557
  10 active torsions:
  status: ('A' for Active; 'I' for Inactive)
    1  A    between atoms: C_1  and  O_2
    2  A    between atoms: O_2  and  C_3
    3  A    between atoms: C_6  and  C_7
    4  A    between atoms: C_7  and  N_8
    5  A    between atoms: C_9  and  C_11
    6  A    between atoms: C_11  and  C_12
    7  A    between atoms: C_12  and  N_13
    8  A    between atoms: C_14  and  C_16
    9  A    between atoms: C_22  and  O_23
   10  A    between atoms: O_23  and  C_24
                            x       y       z     vdW  Elec       q    Type
                         _______ _______ _______ _____ _____    ______ ____

>  <TORSDO>
F 8

>  <SCORE>
-6.124

>  <RMSD_LB>
9.107

>  <RMSD_UB>
11.675

$$$$
