CHEMBL1421890
 OpenBabel10172500383D

 24 24  0  0  1  0  0  0  0  0999 V2000
  144.1440  138.9440  153.9750 N   0  0  0  0  0  0  0  0  0  0  0  0
  145.3340  139.1150  153.3360 C   0  0  0  0  0  0  0  0  0  0  0  0
  145.9440  138.2480  152.7220 O   0  0  0  0  0  0  0  0  0  0  0  0
  145.8590  140.3560  153.5390 N   0  0  0  0  0  0  0  0  0  0  0  0
  143.7470  139.6930  154.4750 H   0  0  0  0  0  0  0  0  0  0  0  0
  145.3560  140.9850  154.1050 H   0  0  0  0  0  0  0  0  0  0  0  0
  143.4560  137.6710  153.9260 C   0  0  0  0  0  2  0  0  0  0  0  0
  139.6370  138.0070  151.8860 C   0  0  0  0  0  0  0  0  0  0  0  0
  140.7430  137.4330  151.2500 C   0  0  0  0  0  3  0  0  0  0  0  0
  141.9730  137.3120  151.9120 C   0  0  0  0  0  3  0  0  0  0  0  0
  142.1320  137.7880  153.2170 C   0  0  0  0  0  0  0  0  0  0  0  0
  141.0220  138.3630  153.8510 C   0  0  0  0  0  3  0  0  0  0  0  0
  139.7780  138.4690  153.2050 C   0  0  0  0  0  0  0  0  0  0  0  0
  137.5090  137.1420  151.2400 C   0  0  0  0  0  1  0  0  0  0  0  0
  138.4410  138.2190  151.2480 O   0  0  0  0  0  0  0  0  0  0  0  0
  138.8220  139.0770  153.9800 O   0  0  0  0  0  0  0  0  0  0  0  0
  138.2330  138.2880  155.0070 C   0  0  0  0  0  1  0  0  0  0  0  0
  147.1360  140.8070  152.9610 C   0  0  2  0  0  3  0  0  0  0  0  0
  148.3060  140.8270  153.9790 C   0  0  0  0  0  0  0  0  0  0  0  0
  148.9400  139.8410  154.3280 O   0  0  0  0  0  0  0  0  0  0  0  0
  148.5040  142.0260  154.5780 O   0  0  0  0  0  1  0  0  0  0  0  0
  146.9770  142.1690  152.2270 C   0  0  0  0  0  3  0  0  0  0  0  0
  148.0000  142.3110  151.0930 C   0  0  0  0  0  1  0  0  0  0  0  0
  145.5690  142.4200  151.6690 C   0  0  0  0  0  1  0  0  0  0  0  0
  1  5  1  0  0  0  0
  2  4  1  0  0  0  0
  2  1  1  0  0  0  0
  3  2  2  0  0  0  0
  4  6  1  0  0  0  0
  7  1  1  0  0  0  0
  8 13  1  0  0  0  0
  9  8  2  0  0  0  0
  9 10  1  0  0  0  0
 10 11  2  0  0  0  0
 11 12  1  0  0  0  0
 11  7  1  0  0  0  0
 13 12  2  0  0  0  0
 13 16  1  0  0  0  0
 14 15  1  0  0  0  0
 15  8  1  0  0  0  0
 16 17  1  0  0  0  0
 18 22  1  1  0  0  0
 18  4  1  0  0  0  0
 18 19  1  0  0  0  0
 19 20  2  0  0  0  0
 19 21  1  0  0  0  0
 23 22  1  0  0  0  0
 24 22  1  0  0  0  0
M  END
>  <MODEL>
1

>  <REMARK>
 VINA RESULT:    -6.752      0.000      0.000
 INTER + INTRA:         -10.156
 INTER:                  -9.469
 INTRA:                  -0.688
 UNBOUND:                -0.642
  Name = CHEMBL1421890
  11 active torsions:
  status: ('A' for Active; 'I' for Inactive)
    1  A    between atoms: C_1  and  O_2
    2  A    between atoms: O_2  and  C_3
    3  A    between atoms: C_6  and  C_7
    4  A    between atoms: C_7  and  N_8
    5  A    between atoms: N_11  and  CA_12
    6  A    between atoms: CA_12  and  C_13
    7  A    between atoms: CA_12  and  CB_16
    8  A    between atoms: CB_16  and  CG1_17
    9  A    between atoms: CB_16  and  CG2_18
   10  A    between atoms: C_20  and  O_21
   11  A    between atoms: O_21  and  C_22
                            x       y       z     vdW  Elec       q    Type
                         _______ _______ _______ _____ _____    ______ ____

>  <TORSDO>
F 7

>  <SCORE>
-6.752

>  <RMSD_LB>
0.000

>  <RMSD_UB>
0.000

$$$$
CHEMBL1421890
 OpenBabel10172500383D

 24 24  0  0  1  0  0  0  0  0999 V2000
  143.4530  139.5760  153.9200 N   0  0  0  0  0  0  0  0  0  0  0  0
  144.7560  139.5200  153.5270 C   0  0  0  0  0  0  0  0  0  0  0  0
  145.4190  138.4970  153.4020 O   0  0  0  0  0  0  0  0  0  0  0  0
  145.3090  140.7570  153.3840 N   0  0  0  0  0  0  0  0  0  0  0  0
  143.0140  140.4500  154.0280 H   0  0  0  0  0  0  0  0  0  0  0  0
  144.7450  141.5420  153.5710 H   0  0  0  0  0  0  0  0  0  0  0  0
  142.7090  138.3620  154.1820 C   0  0  0  0  0  2  0  0  0  0  0  0
  140.2910  137.2240  150.7590 C   0  0  0  0  0  0  0  0  0  0  0  0
  139.7080  137.8140  151.8850 C   0  0  0  0  0  3  0  0  0  0  0  0
  140.4890  138.1940  152.9850 C   0  0  0  0  0  3  0  0  0  0  0  0
  141.8680  137.9660  152.9950 C   0  0  0  0  0  0  0  0  0  0  0  0
  142.4490  137.3730  151.8660 C   0  0  0  0  0  3  0  0  0  0  0  0
  141.6790  137.0090  150.7480 C   0  0  0  0  0  0  0  0  0  0  0  0
  139.1150  137.7260  148.7440 C   0  0  0  0  0  1  0  0  0  0  0  0
  139.5540  136.7620  149.6970 O   0  0  0  0  0  0  0  0  0  0  0  0
  142.4230  136.4260  149.7520 O   0  0  0  0  0  0  0  0  0  0  0  0
  143.7940  136.1790  150.0390 C   0  0  0  0  0  1  0  0  0  0  0  0
  146.7020  140.9850  152.9650 C   0  0  2  0  0  3  0  0  0  0  0  0
  147.6990  141.0770  154.1500 C   0  0  0  0  0  0  0  0  0  0  0  0
  148.1760  142.1180  154.5780 O   0  0  0  0  0  0  0  0  0  0  0  0
  148.1270  139.8780  154.6140 O   0  0  0  0  0  1  0  0  0  0  0  0
  146.8150  142.2080  152.0110 C   0  0  0  0  0  3  0  0  0  0  0  0
  148.0760  142.1180  151.1410 C   0  0  0  0  0  1  0  0  0  0  0  0
  145.5920  142.4110  151.1050 C   0  0  0  0  0  1  0  0  0  0  0  0
  1  5  1  0  0  0  0
  1  7  1  0  0  0  0
  2  1  1  0  0  0  0
  3  2  2  0  0  0  0
  4  2  1  0  0  0  0
  4  6  1  0  0  0  0
  8  9  1  0  0  0  0
  9 10  2  0  0  0  0
 10 11  1  0  0  0  0
 11  7  1  0  0  0  0
 12 11  2  0  0  0  0
 13  8  2  0  0  0  0
 13 12  1  0  0  0  0
 14 15  1  0  0  0  0
 15  8  1  0  0  0  0
 16 17  1  0  0  0  0
 16 13  1  0  0  0  0
 18 22  1  1  0  0  0
 18  4  1  0  0  0  0
 18 19  1  0  0  0  0
 19 20  2  0  0  0  0
 19 21  1  0  0  0  0
 23 22  1  0  0  0  0
 24 22  1  0  0  0  0
M  END
>  <MODEL>
2

>  <REMARK>
 VINA RESULT:    -6.637      1.556      2.657
 INTER + INTRA:          -9.995
 INTER:                  -9.329
 INTRA:                  -0.665
 UNBOUND:                -0.642
  Name = CHEMBL1421890
  11 active torsions:
  status: ('A' for Active; 'I' for Inactive)
    1  A    between atoms: C_1  and  O_2
    2  A    between atoms: O_2  and  C_3
    3  A    between atoms: C_6  and  C_7
    4  A    between atoms: C_7  and  N_8
    5  A    between atoms: N_11  and  CA_12
    6  A    between atoms: CA_12  and  C_13
    7  A    between atoms: CA_12  and  CB_16
    8  A    between atoms: CB_16  and  CG1_17
    9  A    between atoms: CB_16  and  CG2_18
   10  A    between atoms: C_20  and  O_21
   11  A    between atoms: O_21  and  C_22
                            x       y       z     vdW  Elec       q    Type
                         _______ _______ _______ _____ _____    ______ ____

>  <TORSDO>
F 7

>  <SCORE>
-6.637

>  <RMSD_LB>
1.556

>  <RMSD_UB>
2.657

$$$$
CHEMBL1421890
 OpenBabel10172500383D

 24 24  0  0  1  0  0  0  0  0999 V2000
  138.9520  138.0040  155.2580 N   0  0  0  0  0  0  0  0  0  0  0  0
  137.7790  138.1790  155.9270 C   0  0  0  0  0  0  0  0  0  0  0  0
  136.9330  139.0290  155.6720 O   0  0  0  0  0  0  0  0  0  0  0  0
  137.6740  137.3650  157.0140 N   0  0  0  0  0  0  0  0  0  0  0  0
  139.5870  137.3160  155.5610 H   0  0  0  0  0  0  0  0  0  0  0  0
  138.4210  136.7540  157.2100 H   0  0  0  0  0  0  0  0  0  0  0  0
  139.2740  138.8200  154.1070 C   0  0  0  0  0  2  0  0  0  0  0  0
  142.7780  137.3170  152.0280 C   0  0  0  0  0  0  0  0  0  0  0  0
  141.5250  137.3270  151.4070 C   0  0  0  0  0  3  0  0  0  0  0  0
  140.3950  137.8240  152.0720 C   0  0  0  0  0  3  0  0  0  0  0  0
  140.4890  138.2970  153.3850 C   0  0  0  0  0  0  0  0  0  0  0  0
  141.7460  138.2830  154.0040 C   0  0  0  0  0  3  0  0  0  0  0  0
  142.8890  137.8090  153.3390 C   0  0  0  0  0  0  0  0  0  0  0  0
  144.6660  137.6060  150.5980 C   0  0  0  0  0  1  0  0  0  0  0  0
  143.8910  136.7640  151.4450 O   0  0  0  0  0  0  0  0  0  0  0  0
  144.0200  137.8580  154.1160 O   0  0  0  0  0  0  0  0  0  0  0  0
  144.7610  139.0720  154.0930 C   0  0  0  0  0  1  0  0  0  0  0  0
  136.5060  137.3470  157.9110 C   0  0  2  0  0  3  0  0  0  0  0  0
  136.7820  137.9750  159.3020 C   0  0  0  0  0  0  0  0  0  0  0  0
  137.8390  138.4960  159.6320 O   0  0  0  0  0  0  0  0  0  0  0  0
  135.7910  137.7890  160.2070 O   0  0  0  0  0  1  0  0  0  0  0  0
  135.9000  135.9190  158.0260 C   0  0  0  0  0  3  0  0  0  0  0  0
  135.5200  135.3650  156.6460 C   0  0  0  0  0  1  0  0  0  0  0  0
  136.8070  134.9080  158.7420 C   0  0  0  0  0  1  0  0  0  0  0  0
  1  5  1  0  0  0  0
  1  2  1  0  0  0  0
  2  4  1  0  0  0  0
  3  2  2  0  0  0  0
  4  6  1  0  0  0  0
  4 18  1  0  0  0  0
  7  1  1  0  0  0  0
  8 13  1  0  0  0  0
  9  8  2  0  0  0  0
  9 10  1  0  0  0  0
 10 11  2  0  0  0  0
 11 12  1  0  0  0  0
 11  7  1  0  0  0  0
 13 12  2  0  0  0  0
 13 16  1  0  0  0  0
 14 15  1  0  0  0  0
 15  8  1  0  0  0  0
 17 16  1  0  0  0  0
 18 22  1  1  0  0  0
 18 19  1  0  0  0  0
 19 20  2  0  0  0  0
 19 21  1  0  0  0  0
 22 24  1  0  0  0  0
 23 22  1  0  0  0  0
M  END
>  <MODEL>
3

>  <REMARK>
 VINA RESULT:    -6.595      3.699      8.975
 INTER + INTRA:          -9.936
 INTER:                  -9.351
 INTRA:                  -0.584
 UNBOUND:                -0.642
  Name = CHEMBL1421890
  11 active torsions:
  status: ('A' for Active; 'I' for Inactive)
    1  A    between atoms: C_1  and  O_2
    2  A    between atoms: O_2  and  C_3
    3  A    between atoms: C_6  and  C_7
    4  A    between atoms: C_7  and  N_8
    5  A    between atoms: N_11  and  CA_12
    6  A    between atoms: CA_12  and  C_13
    7  A    between atoms: CA_12  and  CB_16
    8  A    between atoms: CB_16  and  CG1_17
    9  A    between atoms: CB_16  and  CG2_18
   10  A    between atoms: C_20  and  O_21
   11  A    between atoms: O_21  and  C_22
                            x       y       z     vdW  Elec       q    Type
                         _______ _______ _______ _____ _____    ______ ____

>  <TORSDO>
F 7

>  <SCORE>
-6.595

>  <RMSD_LB>
3.699

>  <RMSD_UB>
8.975

$$$$
CHEMBL1421890
 OpenBabel10172500383D

 24 24  0  0  1  0  0  0  0  0999 V2000
  144.2220  138.3160  152.8650 N   0  0  0  0  0  0  0  0  0  0  0  0
  145.3200  138.8450  152.2560 C   0  0  0  0  0  0  0  0  0  0  0  0
  145.6450  138.6620  151.0900 O   0  0  0  0  0  0  0  0  0  0  0  0
  146.1120  139.5350  153.1240 N   0  0  0  0  0  0  0  0  0  0  0  0
  144.0630  138.4910  153.8200 H   0  0  0  0  0  0  0  0  0  0  0  0
  145.8350  139.5840  154.0670 H   0  0  0  0  0  0  0  0  0  0  0  0
  143.2880  137.4990  152.1200 C   0  0  0  0  0  2  0  0  0  0  0  0
  139.2180  138.0720  153.5240 C   0  0  0  0  0  0  0  0  0  0  0  0
  139.4790  137.7700  152.1840 C   0  0  0  0  0  3  0  0  0  0  0  0
  140.7910  137.5720  151.7320 C   0  0  0  0  0  3  0  0  0  0  0  0
  141.8750  137.6990  152.6060 C   0  0  0  0  0  0  0  0  0  0  0  0
  141.6090  138.0040  153.9480 C   0  0  0  0  0  3  0  0  0  0  0  0
  140.2970  138.1820  154.4170 C   0  0  0  0  0  0  0  0  0  0  0  0
  137.2250  137.2810  154.5710 C   0  0  0  0  0  1  0  0  0  0  0  0
  137.9580  138.3550  153.9900 O   0  0  0  0  0  0  0  0  0  0  0  0
  140.2430  138.4920  155.7530 O   0  0  0  0  0  0  0  0  0  0  0  0
  140.4170  137.4170  156.6680 C   0  0  0  0  0  1  0  0  0  0  0  0
  147.3600  140.2110  152.7280 C   0  0  2  0  0  3  0  0  0  0  0  0
  148.5800  139.8240  153.6050 C   0  0  0  0  0  0  0  0  0  0  0  0
  148.8950  138.6770  153.8900 O   0  0  0  0  0  0  0  0  0  0  0  0
  149.2220  140.8780  154.1640 O   0  0  0  0  0  1  0  0  0  0  0  0
  147.1690  141.7510  152.6420 C   0  0  0  0  0  3  0  0  0  0  0  0
  146.8330  142.1890  151.2100 C   0  0  0  0  0  1  0  0  0  0  0  0
  146.1050  142.3060  153.6010 C   0  0  0  0  0  1  0  0  0  0  0  0
  1  5  1  0  0  0  0
  2  1  1  0  0  0  0
  2  4  1  0  0  0  0
  3  2  2  0  0  0  0
  4  6  1  0  0  0  0
  7 11  1  0  0  0  0
  7  1  1  0  0  0  0
  8 15  1  0  0  0  0
  8 13  1  0  0  0  0
  9  8  2  0  0  0  0
 10  9  1  0  0  0  0
 10 11  2  0  0  0  0
 11 12  1  0  0  0  0
 12 13  2  0  0  0  0
 13 16  1  0  0  0  0
 15 14  1  0  0  0  0
 16 17  1  0  0  0  0
 18 22  1  1  0  0  0
 18  4  1  0  0  0  0
 18 19  1  0  0  0  0
 19 20  2  0  0  0  0
 19 21  1  0  0  0  0
 22 24  1  0  0  0  0
 23 22  1  0  0  0  0
M  END
>  <MODEL>
4

>  <REMARK>
 VINA RESULT:    -6.531      1.306      1.699
 INTER + INTRA:          -9.845
 INTER:                  -9.176
 INTRA:                  -0.669
 UNBOUND:                -0.642
  Name = CHEMBL1421890
  11 active torsions:
  status: ('A' for Active; 'I' for Inactive)
    1  A    between atoms: C_1  and  O_2
    2  A    between atoms: O_2  and  C_3
    3  A    between atoms: C_6  and  C_7
    4  A    between atoms: C_7  and  N_8
    5  A    between atoms: N_11  and  CA_12
    6  A    between atoms: CA_12  and  C_13
    7  A    between atoms: CA_12  and  CB_16
    8  A    between atoms: CB_16  and  CG1_17
    9  A    between atoms: CB_16  and  CG2_18
   10  A    between atoms: C_20  and  O_21
   11  A    between atoms: O_21  and  C_22
                            x       y       z     vdW  Elec       q    Type
                         _______ _______ _______ _____ _____    ______ ____

>  <TORSDO>
F 7

>  <SCORE>
-6.531

>  <RMSD_LB>
1.306

>  <RMSD_UB>
1.699

$$$$
CHEMBL1421890
 OpenBabel10172500383D

 24 24  0  0  1  0  0  0  0  0999 V2000
  136.8500  136.1900  150.6540 N   0  0  0  0  0  0  0  0  0  0  0  0
  136.1330  136.4440  149.5250 C   0  0  0  0  0  0  0  0  0  0  0  0
  136.3280  137.3730  148.7510 O   0  0  0  0  0  0  0  0  0  0  0  0
  135.0700  135.6020  149.3850 N   0  0  0  0  0  0  0  0  0  0  0  0
  136.5950  135.4380  151.2350 H   0  0  0  0  0  0  0  0  0  0  0  0
  134.9230  134.9220  150.0800 H   0  0  0  0  0  0  0  0  0  0  0  0
  137.9850  137.0160  151.0090 C   0  0  0  0  0  2  0  0  0  0  0  0
  137.9500  138.0340  155.2310 C   0  0  0  0  0  0  0  0  0  0  0  0
  137.0180  137.1360  154.7010 C   0  0  0  0  0  3  0  0  0  0  0  0
  137.0360  136.7960  153.3410 C   0  0  0  0  0  3  0  0  0  0  0  0
  137.9710  137.3700  152.4740 C   0  0  0  0  0  0  0  0  0  0  0  0
  138.9020  138.2710  153.0080 C   0  0  0  0  0  3  0  0  0  0  0  0
  138.9080  138.6010  154.3730 C   0  0  0  0  0  0  0  0  0  0  0  0
  138.5550  137.6290  157.5030 C   0  0  0  0  0  1  0  0  0  0  0  0
  137.9150  138.4570  156.5360 O   0  0  0  0  0  0  0  0  0  0  0  0
  139.8800  139.5130  154.7000 O   0  0  0  0  0  0  0  0  0  0  0  0
  141.2060  139.0140  154.8360 C   0  0  0  0  0  1  0  0  0  0  0  0
  134.1310  135.6550  148.2510 C   0  0  2  0  0  3  0  0  0  0  0  0
  132.9430  136.6260  148.4750 C   0  0  0  0  0  0  0  0  0  0  0  0
  132.3340  137.1960  147.5800 O   0  0  0  0  0  0  0  0  0  0  0  0
  132.6950  136.9160  149.7750 O   0  0  0  0  0  1  0  0  0  0  0  0
  133.6530  134.2320  147.8440 C   0  0  0  0  0  3  0  0  0  0  0  0
  134.8430  133.3170  147.5240 C   0  0  0  0  0  1  0  0  0  0  0  0
  132.7590  133.5480  148.8880 C   0  0  0  0  0  1  0  0  0  0  0  0
  1  7  1  0  0  0  0
  1  5  1  0  0  0  0
  2  1  1  0  0  0  0
  3  2  2  0  0  0  0
  4  2  1  0  0  0  0
  4  6  1  0  0  0  0
  7 11  1  0  0  0  0
  8 15  1  0  0  0  0
  9  8  1  0  0  0  0
 10  9  2  0  0  0  0
 11 12  2  0  0  0  0
 11 10  1  0  0  0  0
 12 13  1  0  0  0  0
 13 16  1  0  0  0  0
 13  8  2  0  0  0  0
 15 14  1  0  0  0  0
 16 17  1  0  0  0  0
 18 22  1  1  0  0  0
 18 19  1  0  0  0  0
 18  4  1  0  0  0  0
 19 21  1  0  0  0  0
 20 19  2  0  0  0  0
 22 24  1  0  0  0  0
 23 22  1  0  0  0  0
M  END
>  <MODEL>
5

>  <REMARK>
 VINA RESULT:    -6.302      5.684     10.788
 INTER + INTRA:          -9.523
 INTER:                  -8.879
 INTRA:                  -0.644
 UNBOUND:                -0.642
  Name = CHEMBL1421890
  11 active torsions:
  status: ('A' for Active; 'I' for Inactive)
    1  A    between atoms: C_1  and  O_2
    2  A    between atoms: O_2  and  C_3
    3  A    between atoms: C_6  and  C_7
    4  A    between atoms: C_7  and  N_8
    5  A    between atoms: N_11  and  CA_12
    6  A    between atoms: CA_12  and  C_13
    7  A    between atoms: CA_12  and  CB_16
    8  A    between atoms: CB_16  and  CG1_17
    9  A    between atoms: CB_16  and  CG2_18
   10  A    between atoms: C_20  and  O_21
   11  A    between atoms: O_21  and  C_22
                            x       y       z     vdW  Elec       q    Type
                         _______ _______ _______ _____ _____    ______ ____

>  <TORSDO>
F 7

>  <SCORE>
-6.302

>  <RMSD_LB>
5.684

>  <RMSD_UB>
10.788

$$$$
CHEMBL1421890
 OpenBabel10172500383D

 24 24  0  0  1  0  0  0  0  0999 V2000
  135.3870  135.5780  152.7100 N   0  0  0  0  0  0  0  0  0  0  0  0
  135.4720  135.8790  151.3850 C   0  0  0  0  0  0  0  0  0  0  0  0
  136.2690  136.6630  150.8820 O   0  0  0  0  0  0  0  0  0  0  0  0
  134.4850  135.2900  150.6550 N   0  0  0  0  0  0  0  0  0  0  0  0
  134.6880  134.9620  153.0260 H   0  0  0  0  0  0  0  0  0  0  0  0
  133.8290  134.7300  151.1280 H   0  0  0  0  0  0  0  0  0  0  0  0
  136.3150  136.1570  153.6590 C   0  0  0  0  0  2  0  0  0  0  0  0
  135.2900  135.0780  157.7400 C   0  0  0  0  0  0  0  0  0  0  0  0
  134.4910  134.6690  156.6660 C   0  0  0  0  0  3  0  0  0  0  0  0
  134.8280  135.0050  155.3480 C   0  0  0  0  0  3  0  0  0  0  0  0
  135.9580  135.7830  155.0750 C   0  0  0  0  0  0  0  0  0  0  0  0
  136.7540  136.1930  156.1530 C   0  0  0  0  0  3  0  0  0  0  0  0
  136.4390  135.8420  157.4760 C   0  0  0  0  0  0  0  0  0  0  0  0
  134.0860  135.7820  159.6750 C   0  0  0  0  0  1  0  0  0  0  0  0
  134.9530  134.8420  159.0490 O   0  0  0  0  0  0  0  0  0  0  0  0
  137.3260  136.3520  158.3920 O   0  0  0  0  0  0  0  0  0  0  0  0
  137.1970  137.7330  158.7070 C   0  0  0  0  0  1  0  0  0  0  0  0
  134.3440  135.4460  149.1960 C   0  0  2  0  0  3  0  0  0  0  0  0
  133.4040  136.6090  148.7850 C   0  0  0  0  0  0  0  0  0  0  0  0
  132.4880  137.0380  149.4710 O   0  0  0  0  0  1  0  0  0  0  0  0
  133.5830  137.0490  147.5160 O   0  0  0  0  0  0  0  0  0  0  0  0
  133.9450  134.1040  148.5180 C   0  0  0  0  0  3  0  0  0  0  0  0
  134.3000  132.9060  149.4070 C   0  0  0  0  0  1  0  0  0  0  0  0
  132.4630  134.0180  148.1240 C   0  0  0  0  0  1  0  0  0  0  0  0
  1  5  1  0  0  0  0
  1  7  1  0  0  0  0
  2  1  1  0  0  0  0
  3  2  2  0  0  0  0
  4  6  1  0  0  0  0
  4  2  1  0  0  0  0
  7 11  1  0  0  0  0
  8 15  1  0  0  0  0
  9  8  2  0  0  0  0
 10  9  1  0  0  0  0
 11 10  2  0  0  0  0
 11 12  1  0  0  0  0
 12 13  2  0  0  0  0
 13  8  1  0  0  0  0
 13 16  1  0  0  0  0
 15 14  1  0  0  0  0
 16 17  1  0  0  0  0
 18 22  1  1  0  0  0
 18  4  1  0  0  0  0
 19 18  1  0  0  0  0
 19 20  1  0  0  0  0
 21 19  2  0  0  0  0
 22 23  1  0  0  0  0
 24 22  1  0  0  0  0
M  END
>  <MODEL>
6

>  <REMARK>
 VINA RESULT:    -6.282      8.947     11.485
 INTER + INTRA:          -9.494
 INTER:                  -9.017
 INTRA:                  -0.477
 UNBOUND:                -0.642
  Name = CHEMBL1421890
  11 active torsions:
  status: ('A' for Active; 'I' for Inactive)
    1  A    between atoms: C_1  and  O_2
    2  A    between atoms: O_2  and  C_3
    3  A    between atoms: C_6  and  C_7
    4  A    between atoms: C_7  and  N_8
    5  A    between atoms: N_11  and  CA_12
    6  A    between atoms: CA_12  and  C_13
    7  A    between atoms: CA_12  and  CB_16
    8  A    between atoms: CB_16  and  CG1_17
    9  A    between atoms: CB_16  and  CG2_18
   10  A    between atoms: C_20  and  O_21
   11  A    between atoms: O_21  and  C_22
                            x       y       z     vdW  Elec       q    Type
                         _______ _______ _______ _____ _____    ______ ____

>  <TORSDO>
F 7

>  <SCORE>
-6.282

>  <RMSD_LB>
8.947

>  <RMSD_UB>
11.485

$$$$
CHEMBL1421890
 OpenBabel10172500383D

 24 24  0  0  1  0  0  0  0  0999 V2000
  143.5760  138.7780  151.5430 N   0  0  0  0  0  0  0  0  0  0  0  0
  144.8590  138.8800  151.9860 C   0  0  0  0  0  0  0  0  0  0  0  0
  145.4880  137.9960  152.5550 O   0  0  0  0  0  0  0  0  0  0  0  0
  145.3640  140.1360  151.8300 N   0  0  0  0  0  0  0  0  0  0  0  0
  143.1400  139.5570  151.1280 H   0  0  0  0  0  0  0  0  0  0  0  0
  144.7830  140.8240  151.4330 H   0  0  0  0  0  0  0  0  0  0  0  0
  142.8450  137.5350  151.6760 C   0  0  0  0  0  2  0  0  0  0  0  0
  139.0020  138.1590  153.6010 C   0  0  0  0  0  0  0  0  0  0  0  0
  140.1880  138.1750  154.3430 C   0  0  0  0  0  3  0  0  0  0  0  0
  141.4300  137.9870  153.7210 C   0  0  0  0  0  3  0  0  0  0  0  0
  141.5120  137.7500  152.3450 C   0  0  0  0  0  0  0  0  0  0  0  0
  140.3220  137.7320  151.6050 C   0  0  0  0  0  3  0  0  0  0  0  0
  139.0730  137.9430  152.2140 C   0  0  0  0  0  0  0  0  0  0  0  0
  137.2940  137.1220  154.9040 C   0  0  0  0  0  1  0  0  0  0  0  0
  137.7620  138.2560  154.1800 O   0  0  0  0  0  0  0  0  0  0  0  0
  138.0260  137.8690  151.3300 O   0  0  0  0  0  0  0  0  0  0  0  0
  137.4310  136.5890  151.1470 C   0  0  0  0  0  1  0  0  0  0  0  0
  146.7310  140.5210  152.2230 C   0  0  2  0  0  3  0  0  0  0  0  0
  146.8070  141.2030  153.6140 C   0  0  0  0  0  0  0  0  0  0  0  0
  146.2720  142.2650  153.8970 O   0  0  0  0  0  0  0  0  0  0  0  0
  147.6420  140.5930  154.4900 O   0  0  0  0  0  1  0  0  0  0  0  0
  147.4210  141.3690  151.1180 C   0  0  0  0  0  3  0  0  0  0  0  0
  146.4710  142.4390  150.5650 C   0  0  0  0  0  1  0  0  0  0  0  0
  148.7280  142.0390  151.5670 C   0  0  0  0  0  1  0  0  0  0  0  0
  1  7  1  0  0  0  0
  1  2  1  0  0  0  0
  2  3  2  0  0  0  0
  4  2  1  0  0  0  0
  4 18  1  0  0  0  0
  5  1  1  0  0  0  0
  6  4  1  0  0  0  0
  7 11  1  0  0  0  0
  8 15  1  0  0  0  0
  8  9  1  0  0  0  0
 10  9  2  0  0  0  0
 11 10  1  0  0  0  0
 12 13  1  0  0  0  0
 12 11  2  0  0  0  0
 13  8  2  0  0  0  0
 15 14  1  0  0  0  0
 16 13  1  0  0  0  0
 17 16  1  0  0  0  0
 18 22  1  6  0  0  0
 18 19  1  0  0  0  0
 19 20  2  0  0  0  0
 19 21  1  0  0  0  0
 22 24  1  0  0  0  0
 23 22  1  0  0  0  0
M  END
>  <MODEL>
7

>  <REMARK>
 VINA RESULT:    -6.198      1.305      2.414
 INTER + INTRA:          -9.376
 INTER:                  -8.821
 INTRA:                  -0.555
 UNBOUND:                -0.642
  Name = CHEMBL1421890
  11 active torsions:
  status: ('A' for Active; 'I' for Inactive)
    1  A    between atoms: C_1  and  O_2
    2  A    between atoms: O_2  and  C_3
    3  A    between atoms: C_6  and  C_7
    4  A    between atoms: C_7  and  N_8
    5  A    between atoms: N_11  and  CA_12
    6  A    between atoms: CA_12  and  C_13
    7  A    between atoms: CA_12  and  CB_16
    8  A    between atoms: CB_16  and  CG1_17
    9  A    between atoms: CB_16  and  CG2_18
   10  A    between atoms: C_20  and  O_21
   11  A    between atoms: O_21  and  C_22
                            x       y       z     vdW  Elec       q    Type
                         _______ _______ _______ _____ _____    ______ ____

>  <TORSDO>
F 7

>  <SCORE>
-6.198

>  <RMSD_LB>
1.305

>  <RMSD_UB>
2.414

$$$$
CHEMBL1421890
 OpenBabel10172500383D

 24 24  0  0  1  0  0  0  0  0999 V2000
  144.2160  138.3770  151.8200 N   0  0  0  0  0  0  0  0  0  0  0  0
  145.5700  138.5070  151.7580 C   0  0  0  0  0  0  0  0  0  0  0  0
  146.3340  137.7370  151.1890 O   0  0  0  0  0  0  0  0  0  0  0  0
  146.0260  139.5500  152.5070 N   0  0  0  0  0  0  0  0  0  0  0  0
  143.6870  139.0280  152.3340 H   0  0  0  0  0  0  0  0  0  0  0  0
  145.3680  140.0880  153.0030 H   0  0  0  0  0  0  0  0  0  0  0  0
  143.5470  137.2900  151.1370 C   0  0  0  0  0  2  0  0  0  0  0  0
  139.2380  137.5270  151.6250 C   0  0  0  0  0  0  0  0  0  0  0  0
  139.8010  137.1140  150.4130 C   0  0  0  0  0  3  0  0  0  0  0  0
  141.1920  137.0240  150.2590 C   0  0  0  0  0  3  0  0  0  0  0  0
  142.0510  137.3730  151.3040 C   0  0  0  0  0  0  0  0  0  0  0  0
  141.4830  137.7890  152.5170 C   0  0  0  0  0  3  0  0  0  0  0  0
  140.0910  137.8600  152.6910 C   0  0  0  0  0  0  0  0  0  0  0  0
  137.0300  136.6790  151.3090 C   0  0  0  0  0  1  0  0  0  0  0  0
  137.8880  137.7080  151.7930 O   0  0  0  0  0  0  0  0  0  0  0  0
  139.7290  138.3060  153.9380 O   0  0  0  0  0  0  0  0  0  0  0  0
  140.7330  138.2740  154.9450 C   0  0  0  0  0  1  0  0  0  0  0  0
  147.4490  139.9170  152.6150 C   0  0  2  0  0  3  0  0  0  0  0  0
  148.1920  139.1880  153.7650 C   0  0  0  0  0  0  0  0  0  0  0  0
  148.2790  139.6060  154.9110 O   0  0  0  0  0  1  0  0  0  0  0  0
  148.8740  138.0830  153.3770 O   0  0  0  0  0  0  0  0  0  0  0  0
  147.6340  141.4590  152.6850 C   0  0  0  0  0  3  0  0  0  0  0  0
  148.6290  141.9480  151.6250 C   0  0  0  0  0  1  0  0  0  0  0  0
  146.3260  142.2540  152.5530 C   0  0  0  0  0  1  0  0  0  0  0  0
  1  5  1  0  0  0  0
  2  1  1  0  0  0  0
  2  4  1  0  0  0  0
  3  2  2  0  0  0  0
  4 18  1  0  0  0  0
  4  6  1  0  0  0  0
  7 11  1  0  0  0  0
  7  1  1  0  0  0  0
  8 15  1  0  0  0  0
  8 13  1  0  0  0  0
  9  8  2  0  0  0  0
 10  9  1  0  0  0  0
 10 11  2  0  0  0  0
 11 12  1  0  0  0  0
 12 13  2  0  0  0  0
 13 16  1  0  0  0  0
 14 15  1  0  0  0  0
 16 17  1  0  0  0  0
 18 22  1  1  0  0  0
 18 19  1  0  0  0  0
 19 20  1  0  0  0  0
 21 19  2  0  0  0  0
 23 22  1  0  0  0  0
 24 22  1  0  0  0  0
M  END
>  <MODEL>
8

>  <REMARK>
 VINA RESULT:    -6.124      1.434      1.743
 INTER + INTRA:          -9.272
 INTER:                  -8.680
 INTRA:                  -0.591
 UNBOUND:                -0.642
  Name = CHEMBL1421890
  11 active torsions:
  status: ('A' for Active; 'I' for Inactive)
    1  A    between atoms: C_1  and  O_2
    2  A    between atoms: O_2  and  C_3
    3  A    between atoms: C_6  and  C_7
    4  A    between atoms: C_7  and  N_8
    5  A    between atoms: N_11  and  CA_12
    6  A    between atoms: CA_12  and  C_13
    7  A    between atoms: CA_12  and  CB_16
    8  A    between atoms: CB_16  and  CG1_17
    9  A    between atoms: CB_16  and  CG2_18
   10  A    between atoms: C_20  and  O_21
   11  A    between atoms: O_21  and  C_22
                            x       y       z     vdW  Elec       q    Type
                         _______ _______ _______ _____ _____    ______ ____

>  <TORSDO>
F 7

>  <SCORE>
-6.124

>  <RMSD_LB>
1.434

>  <RMSD_UB>
1.743

$$$$
CHEMBL1421890
 OpenBabel10172500383D

 24 24  0  0  1  0  0  0  0  0999 V2000
  145.0250  137.9880  151.9590 N   0  0  0  0  0  0  0  0  0  0  0  0
  146.2900  138.4910  151.9620 C   0  0  0  0  0  0  0  0  0  0  0  0
  147.2710  137.9540  151.4620 O   0  0  0  0  0  0  0  0  0  0  0  0
  146.3920  139.6380  152.6910 N   0  0  0  0  0  0  0  0  0  0  0  0
  144.3060  138.4770  152.4200 H   0  0  0  0  0  0  0  0  0  0  0  0
  145.5820  139.9810  153.1320 H   0  0  0  0  0  0  0  0  0  0  0  0
  144.7270  136.7420  151.2850 C   0  0  0  0  0  2  0  0  0  0  0  0
  140.6350  136.6640  149.8330 C   0  0  0  0  0  0  0  0  0  0  0  0
  140.9450  137.2250  151.0760 C   0  0  0  0  0  3  0  0  0  0  0  0
  142.2670  137.2630  151.5410 C   0  0  0  0  0  3  0  0  0  0  0  0
  143.3070  136.7140  150.7830 C   0  0  0  0  0  0  0  0  0  0  0  0
  142.9920  136.1510  149.5390 C   0  0  0  0  0  3  0  0  0  0  0  0
  141.6740  136.1280  149.0530 C   0  0  0  0  0  0  0  0  0  0  0  0
  138.7570  137.6720  148.7620 C   0  0  0  0  0  1  0  0  0  0  0  0
  139.3470  136.5320  149.3780 O   0  0  0  0  0  0  0  0  0  0  0  0
  141.5640  135.5190  147.8280 O   0  0  0  0  0  0  0  0  0  0  0  0
  141.7140  136.3510  146.6840 C   0  0  0  0  0  1  0  0  0  0  0  0
  147.6470  140.3910  152.8570 C   0  0  2  0  0  3  0  0  0  0  0  0
  148.2820  140.2360  154.2630 C   0  0  0  0  0  0  0  0  0  0  0  0
  147.9860  139.3630  155.0670 O   0  0  0  0  0  1  0  0  0  0  0  0
  149.1230  141.2400  154.6110 O   0  0  0  0  0  0  0  0  0  0  0  0
  147.4700  141.8840  152.4590 C   0  0  0  0  0  3  0  0  0  0  0  0
  148.3310  142.2390  151.2400 C   0  0  0  0  0  1  0  0  0  0  0  0
  146.0150  142.2900  152.1830 C   0  0  0  0  0  1  0  0  0  0  0  0
  1  2  1  0  0  0  0
  1  5  1  0  0  0  0
  2  4  1  0  0  0  0
  3  2  2  0  0  0  0
  4 18  1  0  0  0  0
  4  6  1  0  0  0  0
  7  1  1  0  0  0  0
  8  9  1  0  0  0  0
  9 10  2  0  0  0  0
 11  7  1  0  0  0  0
 11 10  1  0  0  0  0
 12 11  2  0  0  0  0
 13 12  1  0  0  0  0
 13  8  2  0  0  0  0
 14 15  1  0  0  0  0
 15  8  1  0  0  0  0
 16 13  1  0  0  0  0
 17 16  1  0  0  0  0
 18 22  1  1  0  0  0
 18 19  1  0  0  0  0
 19 21  2  0  0  0  0
 19 20  1  0  0  0  0
 23 22  1  0  0  0  0
 24 22  1  0  0  0  0
M  END
>  <MODEL>
9

>  <REMARK>
 VINA RESULT:    -5.928      2.290      3.409
 INTER + INTRA:          -8.996
 INTER:                  -8.354
 INTRA:                  -0.642
 UNBOUND:                -0.642
  Name = CHEMBL1421890
  11 active torsions:
  status: ('A' for Active; 'I' for Inactive)
    1  A    between atoms: C_1  and  O_2
    2  A    between atoms: O_2  and  C_3
    3  A    between atoms: C_6  and  C_7
    4  A    between atoms: C_7  and  N_8
    5  A    between atoms: N_11  and  CA_12
    6  A    between atoms: CA_12  and  C_13
    7  A    between atoms: CA_12  and  CB_16
    8  A    between atoms: CB_16  and  CG1_17
    9  A    between atoms: CB_16  and  CG2_18
   10  A    between atoms: C_20  and  O_21
   11  A    between atoms: O_21  and  C_22
                            x       y       z     vdW  Elec       q    Type
                         _______ _______ _______ _____ _____    ______ ____

>  <TORSDO>
F 7

>  <SCORE>
-5.928

>  <RMSD_LB>
2.290

>  <RMSD_UB>
3.409

$$$$
