CHEMBL1950215
 OpenBabel10172500493D

 23 23  0  0  1  0  0  0  0  0999 V2000
  136.2420  135.7940  154.6190 N   0  0  0  0  0  0  0  0  0  0  0  0
  135.0600  135.7520  153.9110 C   0  0  0  0  0  0  0  0  0  0  0  0
  134.1090  136.4810  154.1600 O   0  0  0  0  0  0  0  0  0  0  0  0
  136.9890  135.2210  154.3350 H   0  0  0  0  0  0  0  0  0  0  0  0
  136.4180  136.6660  155.7800 C   0  0  2  0  0  3  0  0  0  0  0  0
  137.2870  137.8770  155.4160 C   0  0  0  0  0  0  0  0  0  0  0  0
  136.9410  139.0410  155.5760 O   0  0  0  0  0  0  0  0  0  0  0  0
  139.6230  138.1820  155.2460 C   0  0  0  0  0  1  0  0  0  0  0  0
  138.4490  137.4730  154.8320 O   0  0  0  0  0  0  0  0  0  0  0  0
  137.0400  135.9050  156.9560 C   0  0  0  0  0  2  0  0  0  0  0  0
  136.6320  136.6180  158.5990 S   0  0  0  0  0  0  0  0  0  0  0  0
  135.2840  136.6030  158.7780 H   0  0  0  0  0  0  0  0  0  0  0  0
  135.0640  134.7530  152.7630 C   0  0  0  0  0  2  0  0  0  0  0  0
  134.6080  135.3960  151.4740 C   0  0  0  0  0  0  0  0  0  0  0  0
  133.2440  135.5790  151.2320 C   0  0  0  0  0  3  0  0  0  0  0  0
  132.8110  136.2530  150.0930 C   0  0  0  0  0  3  0  0  0  0  0  0
  133.7420  136.7400  149.1680 C   0  0  0  0  0  0  0  0  0  0  0  0
  135.1100  136.5330  149.3660 C   0  0  0  0  0  0  0  0  0  0  0  0
  135.5310  135.8560  150.5220 C   0  0  0  0  0  3  0  0  0  0  0  0
  133.2640  137.4270  148.0870 O   0  0  0  0  0  0  0  0  0  0  0  0
  133.1540  138.3570  148.1330 H   0  0  0  0  0  0  0  0  0  0  0  0
  136.1520  136.9300  148.5690 O   0  0  0  0  0  0  0  0  0  0  0  0
  136.8520  138.1150  148.9270 C   0  0  0  0  0  1  0  0  0  0  0  0
  1  5  1  0  0  0  0
  2  3  2  0  0  0  0
  2  1  1  0  0  0  0
  4  1  1  0  0  0  0
  5 10  1  1  0  0  0
  6  7  2  0  0  0  0
  6  5  1  0  0  0  0
  9  8  1  0  0  0  0
  9  6  1  0  0  0  0
 10 11  1  0  0  0  0
 11 12  1  0  0  0  0
 13  2  1  0  0  0  0
 14 13  1  0  0  0  0
 15 14  1  0  0  0  0
 16 15  2  0  0  0  0
 17 18  2  0  0  0  0
 17 16  1  0  0  0  0
 18 19  1  0  0  0  0
 19 14  2  0  0  0  0
 20 21  1  0  0  0  0
 20 17  1  0  0  0  0
 22 23  1  0  0  0  0
 22 18  1  0  0  0  0
M  END
>  <MODEL>
1

>  <REMARK>
 VINA RESULT:    -5.719      0.000      0.000
 INTER + INTRA:          -8.876
 INTER:                  -8.402
 INTRA:                  -0.474
 UNBOUND:                -0.482
  Name = CHEMBL1950215
  11 active torsions:
  status: ('A' for Active; 'I' for Inactive)
    1  A    between atoms: C_1  and  O_2
    2  A    between atoms: O_2  and  C_3
    3  A    between atoms: C_3  and  C_5
    4  A    between atoms: C_5  and  C_6
    5  A    between atoms: C_5  and  N_8
    6  A    between atoms: C_6  and  S_7
    7  A    between atoms: C_9  and  C_11
    8  A    between atoms: C_11  and  C_12
    9  A    between atoms: C_15  and  O_16
   10  A    between atoms: C_17  and  O_18
   11  A    between atoms: O_18  and  C_19
                            x       y       z     vdW  Elec       q    Type
                         _______ _______ _______ _____ _____    ______ ____

>  <TORSDO>
F 9

>  <SCORE>
-5.719

>  <RMSD_LB>
0.000

>  <RMSD_UB>
0.000

$$$$
CHEMBL1950215
 OpenBabel10172500493D

 23 23  0  0  1  0  0  0  0  0999 V2000
  134.3850  133.7250  147.9530 N   0  0  0  0  0  0  0  0  0  0  0  0
  133.4470  133.4530  148.9270 C   0  0  0  0  0  0  0  0  0  0  0  0
  132.2430  133.5560  148.7380 O   0  0  0  0  0  0  0  0  0  0  0  0
  135.3360  133.5700  148.1500 H   0  0  0  0  0  0  0  0  0  0  0  0
  134.0060  134.2370  146.6360 C   0  0  2  0  0  3  0  0  0  0  0  0
  134.8230  133.5460  145.5370 C   0  0  0  0  0  0  0  0  0  0  0  0
  135.0860  134.0570  144.4550 O   0  0  0  0  0  0  0  0  0  0  0  0
  136.4790  131.8620  145.5860 C   0  0  0  0  0  1  0  0  0  0  0  0
  135.1460  132.2760  145.9070 O   0  0  0  0  0  0  0  0  0  0  0  0
  134.1930  135.7560  146.5560 C   0  0  0  0  0  2  0  0  0  0  0  0
  132.6880  136.7120  146.9970 S   0  0  0  0  0  0  0  0  0  0  0  0
  132.0030  136.0560  147.9710 H   0  0  0  0  0  0  0  0  0  0  0  0
  134.0450  132.9670  150.2390 C   0  0  0  0  0  2  0  0  0  0  0  0
  134.8080  134.0690  150.9360 C   0  0  0  0  0  0  0  0  0  0  0  0
  136.0670  134.4500  150.4650 C   0  0  0  0  0  3  0  0  0  0  0  0
  136.7430  135.5240  151.0380 C   0  0  0  0  0  3  0  0  0  0  0  0
  136.1710  136.2250  152.1060 C   0  0  0  0  0  0  0  0  0  0  0  0
  134.9310  135.8380  152.6230 C   0  0  0  0  0  0  0  0  0  0  0  0
  134.2610  134.7550  152.0320 C   0  0  0  0  0  3  0  0  0  0  0  0
  136.8600  137.2950  152.6060 O   0  0  0  0  0  0  0  0  0  0  0  0
  137.7820  137.3700  152.4570 H   0  0  0  0  0  0  0  0  0  0  0  0
  134.2320  136.3990  153.6590 O   0  0  0  0  0  0  0  0  0  0  0  0
  133.7310  135.5350  154.6720 C   0  0  0  0  0  1  0  0  0  0  0  0
  1  4  1  0  0  0  0
  1  2  1  0  0  0  0
  2 13  1  0  0  0  0
  3  2  2  0  0  0  0
  5 10  1  1  0  0  0
  5  1  1  0  0  0  0
  6  9  1  0  0  0  0
  6  5  1  0  0  0  0
  7  6  2  0  0  0  0
  8  9  1  0  0  0  0
 10 11  1  0  0  0  0
 11 12  1  0  0  0  0
 13 14  1  0  0  0  0
 14 19  1  0  0  0  0
 15 14  2  0  0  0  0
 15 16  1  0  0  0  0
 16 17  2  0  0  0  0
 17 20  1  0  0  0  0
 17 18  1  0  0  0  0
 18 22  1  0  0  0  0
 19 18  2  0  0  0  0
 21 20  1  0  0  0  0
 22 23  1  0  0  0  0
M  END
>  <MODEL>
2

>  <REMARK>
 VINA RESULT:    -5.652      4.450      7.766
 INTER + INTRA:          -8.778
 INTER:                  -8.448
 INTRA:                  -0.330
 UNBOUND:                -0.482
  Name = CHEMBL1950215
  11 active torsions:
  status: ('A' for Active; 'I' for Inactive)
    1  A    between atoms: C_1  and  O_2
    2  A    between atoms: O_2  and  C_3
    3  A    between atoms: C_3  and  C_5
    4  A    between atoms: C_5  and  C_6
    5  A    between atoms: C_5  and  N_8
    6  A    between atoms: C_6  and  S_7
    7  A    between atoms: C_9  and  C_11
    8  A    between atoms: C_11  and  C_12
    9  A    between atoms: C_15  and  O_16
   10  A    between atoms: C_17  and  O_18
   11  A    between atoms: O_18  and  C_19
                            x       y       z     vdW  Elec       q    Type
                         _______ _______ _______ _____ _____    ______ ____

>  <TORSDO>
F 9

>  <SCORE>
-5.652

>  <RMSD_LB>
4.450

>  <RMSD_UB>
7.766

$$$$
CHEMBL1950215
 OpenBabel10172500493D

 23 23  0  0  1  0  0  0  0  0999 V2000
  144.8330  140.7920  149.3720 N   0  0  0  0  0  0  0  0  0  0  0  0
  145.9750  141.5040  149.0720 C   0  0  0  0  0  0  0  0  0  0  0  0
  146.6750  141.2580  148.0980 O   0  0  0  0  0  0  0  0  0  0  0  0
  144.2830  141.0740  150.1380 H   0  0  0  0  0  0  0  0  0  0  0  0
  144.4140  139.6320  148.5860 C   0  0  2  0  0  3  0  0  0  0  0  0
  142.8840  139.5610  148.5070 C   0  0  0  0  0  0  0  0  0  0  0  0
  142.2700  138.9140  147.6660 O   0  0  0  0  0  0  0  0  0  0  0  0
  141.4530  139.7060  150.3810 C   0  0  0  0  0  1  0  0  0  0  0  0
  142.3180  140.3650  149.4490 O   0  0  0  0  0  0  0  0  0  0  0  0
  144.9730  138.3320  149.1740 C   0  0  0  0  0  2  0  0  0  0  0  0
  145.5070  137.1140  147.9070 S   0  0  0  0  0  0  0  0  0  0  0  0
  144.6840  136.0330  147.9420 H   0  0  0  0  0  0  0  0  0  0  0  0
  146.2580  142.6500  150.0320 C   0  0  0  0  0  2  0  0  0  0  0  0
  146.9360  142.1580  151.2890 C   0  0  0  0  0  0  0  0  0  0  0  0
  148.3290  142.2020  151.3920 C   0  0  0  0  0  3  0  0  0  0  0  0
  148.9640  141.8380  152.5770 C   0  0  0  0  0  3  0  0  0  0  0  0
  148.2090  141.4080  153.6750 C   0  0  0  0  0  0  0  0  0  0  0  0
  146.8180  141.3160  153.5840 C   0  0  0  0  0  0  0  0  0  0  0  0
  146.1920  141.6890  152.3830 C   0  0  0  0  0  3  0  0  0  0  0  0
  148.8800  141.1000  154.8260 O   0  0  0  0  0  0  0  0  0  0  0  0
  149.2180  140.2350  154.9540 H   0  0  0  0  0  0  0  0  0  0  0  0
  145.9300  140.9120  154.5460 O   0  0  0  0  0  0  0  0  0  0  0  0
  145.0890  139.8030  154.2570 C   0  0  0  0  0  1  0  0  0  0  0  0
  1  4  1  0  0  0  0
  2  1  1  0  0  0  0
  2 13  1  0  0  0  0
  3  2  2  0  0  0  0
  5 10  1  1  0  0  0
  5  1  1  0  0  0  0
  6  5  1  0  0  0  0
  6  9  1  0  0  0  0
  7  6  2  0  0  0  0
  9  8  1  0  0  0  0
 11 12  1  0  0  0  0
 11 10  1  0  0  0  0
 13 14  1  0  0  0  0
 14 15  2  0  0  0  0
 14 19  1  0  0  0  0
 15 16  1  0  0  0  0
 16 17  2  0  0  0  0
 17 20  1  0  0  0  0
 18 17  1  0  0  0  0
 18 22  1  0  0  0  0
 19 18  2  0  0  0  0
 20 21  1  0  0  0  0
 23 22  1  0  0  0  0
M  END
>  <MODEL>
3

>  <REMARK>
 VINA RESULT:    -5.603      9.076     12.871
 INTER + INTRA:          -8.705
 INTER:                  -8.110
 INTRA:                  -0.595
 UNBOUND:                -0.482
  Name = CHEMBL1950215
  11 active torsions:
  status: ('A' for Active; 'I' for Inactive)
    1  A    between atoms: C_1  and  O_2
    2  A    between atoms: O_2  and  C_3
    3  A    between atoms: C_3  and  C_5
    4  A    between atoms: C_5  and  C_6
    5  A    between atoms: C_5  and  N_8
    6  A    between atoms: C_6  and  S_7
    7  A    between atoms: C_9  and  C_11
    8  A    between atoms: C_11  and  C_12
    9  A    between atoms: C_15  and  O_16
   10  A    between atoms: C_17  and  O_18
   11  A    between atoms: O_18  and  C_19
                            x       y       z     vdW  Elec       q    Type
                         _______ _______ _______ _____ _____    ______ ____

>  <TORSDO>
F 9

>  <SCORE>
-5.603

>  <RMSD_LB>
9.076

>  <RMSD_UB>
12.871

$$$$
CHEMBL1950215
 OpenBabel10172500493D

 23 23  0  0  1  0  0  0  0  0999 V2000
  137.0060  136.3750  155.9560 N   0  0  0  0  0  0  0  0  0  0  0  0
  136.1300  136.5600  154.9070 C   0  0  0  0  0  0  0  0  0  0  0  0
  135.0130  137.0400  155.0500 O   0  0  0  0  0  0  0  0  0  0  0  0
  137.9110  136.0370  155.7670 H   0  0  0  0  0  0  0  0  0  0  0  0
  136.6310  136.6680  157.3380 C   0  0  2  0  0  3  0  0  0  0  0  0
  137.5940  137.6940  157.9500 C   0  0  0  0  0  0  0  0  0  0  0  0
  138.5120  138.2230  157.3350 O   0  0  0  0  0  0  0  0  0  0  0  0
  136.0840  138.5190  159.5670 C   0  0  0  0  0  1  0  0  0  0  0  0
  137.3270  137.8710  159.2740 O   0  0  0  0  0  0  0  0  0  0  0  0
  136.6080  135.3930  158.1890 C   0  0  0  0  0  2  0  0  0  0  0  0
  134.9300  134.9150  158.7620 S   0  0  0  0  0  0  0  0  0  0  0  0
  134.9610  133.6460  159.2470 H   0  0  0  0  0  0  0  0  0  0  0  0
  136.6960  136.1610  153.5520 C   0  0  0  0  0  2  0  0  0  0  0  0
  135.6620  135.4440  152.7150 C   0  0  0  0  0  0  0  0  0  0  0  0
  135.1120  134.2420  153.1670 C   0  0  0  0  0  3  0  0  0  0  0  0
  134.0930  133.6170  152.4530 C   0  0  0  0  0  3  0  0  0  0  0  0
  133.6200  134.1820  151.2630 C   0  0  0  0  0  0  0  0  0  0  0  0
  134.1820  135.3620  150.7680 C   0  0  0  0  0  0  0  0  0  0  0  0
  135.2070  135.9820  151.5010 C   0  0  0  0  0  3  0  0  0  0  0  0
  132.5920  133.5480  150.6220 O   0  0  0  0  0  0  0  0  0  0  0  0
  131.7280  133.9090  150.6500 H   0  0  0  0  0  0  0  0  0  0  0  0
  133.8520  136.0460  149.6270 O   0  0  0  0  0  0  0  0  0  0  0  0
  132.7010  136.8800  149.6570 C   0  0  0  0  0  1  0  0  0  0  0  0
  1  5  1  0  0  0  0
  2  3  2  0  0  0  0
  2  1  1  0  0  0  0
  4  1  1  0  0  0  0
  5  6  1  0  0  0  0
  5 10  1  1  0  0  0
  6  9  1  0  0  0  0
  7  6  2  0  0  0  0
  9  8  1  0  0  0  0
 10 11  1  0  0  0  0
 11 12  1  0  0  0  0
 13  2  1  0  0  0  0
 14 15  1  0  0  0  0
 14 13  1  0  0  0  0
 16 15  2  0  0  0  0
 17 16  1  0  0  0  0
 18 17  2  0  0  0  0
 18 19  1  0  0  0  0
 19 14  2  0  0  0  0
 20 21  1  0  0  0  0
 20 17  1  0  0  0  0
 22 23  1  0  0  0  0
 22 18  1  0  0  0  0
M  END
>  <MODEL>
4

>  <REMARK>
 VINA RESULT:    -5.352      2.143      2.989
 INTER + INTRA:          -8.337
 INTER:                  -7.897
 INTRA:                  -0.440
 UNBOUND:                -0.482
  Name = CHEMBL1950215
  11 active torsions:
  status: ('A' for Active; 'I' for Inactive)
    1  A    between atoms: C_1  and  O_2
    2  A    between atoms: O_2  and  C_3
    3  A    between atoms: C_3  and  C_5
    4  A    between atoms: C_5  and  C_6
    5  A    between atoms: C_5  and  N_8
    6  A    between atoms: C_6  and  S_7
    7  A    between atoms: C_9  and  C_11
    8  A    between atoms: C_11  and  C_12
    9  A    between atoms: C_15  and  O_16
   10  A    between atoms: C_17  and  O_18
   11  A    between atoms: O_18  and  C_19
                            x       y       z     vdW  Elec       q    Type
                         _______ _______ _______ _____ _____    ______ ____

>  <TORSDO>
F 9

>  <SCORE>
-5.352

>  <RMSD_LB>
2.143

>  <RMSD_UB>
2.989

$$$$
CHEMBL1950215
 OpenBabel10172500493D

 23 23  0  0  1  0  0  0  0  0999 V2000
  135.5270  136.5550  150.2900 N   0  0  0  0  0  0  0  0  0  0  0  0
  136.7580  135.9340  150.2710 C   0  0  0  0  0  0  0  0  0  0  0  0
  136.8890  134.7180  150.2180 O   0  0  0  0  0  0  0  0  0  0  0  0
  135.4880  137.5380  150.2770 H   0  0  0  0  0  0  0  0  0  0  0  0
  134.2770  135.7950  150.3300 C   0  0  2  0  0  3  0  0  0  0  0  0
  133.3720  136.1900  149.1560 C   0  0  0  0  0  0  0  0  0  0  0  0
  132.5500  137.0980  149.1990 O   0  0  0  0  0  0  0  0  0  0  0  0
  132.7040  134.2060  148.0630 C   0  0  0  0  0  1  0  0  0  0  0  0
  133.5630  135.3510  148.1010 O   0  0  0  0  0  0  0  0  0  0  0  0
  133.5420  136.0060  151.6570 C   0  0  0  0  0  2  0  0  0  0  0  0
  134.1670  134.9540  153.0270 S   0  0  0  0  0  0  0  0  0  0  0  0
  133.1230  134.5270  153.7840 H   0  0  0  0  0  0  0  0  0  0  0  0
  137.9350  136.8980  150.2700 C   0  0  0  0  0  2  0  0  0  0  0  0
  138.3330  137.2780  151.6770 C   0  0  0  0  0  0  0  0  0  0  0  0
  139.5970  137.8190  151.9210 C   0  0  0  0  0  3  0  0  0  0  0  0
  139.9460  138.2590  153.1960 C   0  0  0  0  0  3  0  0  0  0  0  0
  139.0340  138.1470  154.2520 C   0  0  0  0  0  0  0  0  0  0  0  0
  137.7770  137.5710  154.0430 C   0  0  0  0  0  0  0  0  0  0  0  0
  137.4400  137.1350  152.7510 C   0  0  0  0  0  3  0  0  0  0  0  0
  139.4130  138.6290  155.4740 O   0  0  0  0  0  0  0  0  0  0  0  0
  139.3420  139.5450  155.6590 H   0  0  0  0  0  0  0  0  0  0  0  0
  136.7720  137.3750  154.9530 O   0  0  0  0  0  0  0  0  0  0  0  0
  136.7660  136.1610  155.6920 C   0  0  0  0  0  1  0  0  0  0  0  0
  1  5  1  0  0  0  0
  2  1  1  0  0  0  0
  3  2  2  0  0  0  0
  4  1  1  0  0  0  0
  5 10  1  1  0  0  0
  6  7  2  0  0  0  0
  6  5  1  0  0  0  0
  8  9  1  0  0  0  0
  9  6  1  0  0  0  0
 10 11  1  0  0  0  0
 11 12  1  0  0  0  0
 13  2  1  0  0  0  0
 13 14  1  0  0  0  0
 14 15  2  0  0  0  0
 14 19  1  0  0  0  0
 15 16  1  0  0  0  0
 16 17  2  0  0  0  0
 17 20  1  0  0  0  0
 18 17  1  0  0  0  0
 18 22  1  0  0  0  0
 19 18  2  0  0  0  0
 20 21  1  0  0  0  0
 22 23  1  0  0  0  0
M  END
>  <MODEL>
5

>  <REMARK>
 VINA RESULT:    -5.349      2.589      6.766
 INTER + INTRA:          -8.332
 INTER:                  -7.837
 INTRA:                  -0.495
 UNBOUND:                -0.482
  Name = CHEMBL1950215
  11 active torsions:
  status: ('A' for Active; 'I' for Inactive)
    1  A    between atoms: C_1  and  O_2
    2  A    between atoms: O_2  and  C_3
    3  A    between atoms: C_3  and  C_5
    4  A    between atoms: C_5  and  C_6
    5  A    between atoms: C_5  and  N_8
    6  A    between atoms: C_6  and  S_7
    7  A    between atoms: C_9  and  C_11
    8  A    between atoms: C_11  and  C_12
    9  A    between atoms: C_15  and  O_16
   10  A    between atoms: C_17  and  O_18
   11  A    between atoms: O_18  and  C_19
                            x       y       z     vdW  Elec       q    Type
                         _______ _______ _______ _____ _____    ______ ____

>  <TORSDO>
F 9

>  <SCORE>
-5.349

>  <RMSD_LB>
2.589

>  <RMSD_UB>
6.766

$$$$
CHEMBL1950215
 OpenBabel10172500493D

 23 23  0  0  1  0  0  0  0  0999 V2000
  144.1280  139.1820  152.0070 N   0  0  0  0  0  0  0  0  0  0  0  0
  144.0620  137.8070  152.0810 C   0  0  0  0  0  0  0  0  0  0  0  0
  144.9770  137.1200  152.5140 O   0  0  0  0  0  0  0  0  0  0  0  0
  143.3370  139.6820  151.7020 H   0  0  0  0  0  0  0  0  0  0  0  0
  145.3370  139.9200  152.3700 C   0  0  2  0  0  3  0  0  0  0  0  0
  145.4690  140.0170  153.8960 C   0  0  0  0  0  0  0  0  0  0  0  0
  144.5190  139.9830  154.6690 O   0  0  0  0  0  0  0  0  0  0  0  0
  147.4180  139.0890  154.8520 C   0  0  0  0  0  1  0  0  0  0  0  0
  146.7680  140.2140  154.2520 O   0  0  0  0  0  0  0  0  0  0  0  0
  145.3400  141.3210  151.7500 C   0  0  0  0  0  2  0  0  0  0  0  0
  146.9060  141.7490  150.8910 S   0  0  0  0  0  0  0  0  0  0  0  0
  147.8840  140.8890  151.2770 H   0  0  0  0  0  0  0  0  0  0  0  0
  142.7310  137.2270  151.6230 C   0  0  0  0  0  2  0  0  0  0  0  0
  141.5760  137.8450  152.3750 C   0  0  0  0  0  0  0  0  0  0  0  0
  140.4300  138.2460  151.6850 C   0  0  0  0  0  3  0  0  0  0  0  0
  139.3210  138.7310  152.3730 C   0  0  0  0  0  3  0  0  0  0  0  0
  139.3520  138.8370  153.7690 C   0  0  0  0  0  0  0  0  0  0  0  0
  140.5020  138.4820  154.4800 C   0  0  0  0  0  0  0  0  0  0  0  0
  141.6100  137.9910  153.7710 C   0  0  0  0  0  3  0  0  0  0  0  0
  138.2230  139.2840  154.3980 O   0  0  0  0  0  0  0  0  0  0  0  0
  137.7950  140.0620  154.0970 H   0  0  0  0  0  0  0  0  0  0  0  0
  140.7100  138.5280  155.8340 O   0  0  0  0  0  0  0  0  0  0  0  0
  140.3540  137.3860  156.6030 C   0  0  0  0  0  1  0  0  0  0  0  0
  1  2  1  0  0  0  0
  1  5  1  0  0  0  0
  2  3  2  0  0  0  0
  4  1  1  0  0  0  0
  5 10  1  6  0  0  0
  5  6  1  0  0  0  0
  6  9  1  0  0  0  0
  6  7  2  0  0  0  0
  9  8  1  0  0  0  0
 11 12  1  0  0  0  0
 11 10  1  0  0  0  0
 13  2  1  0  0  0  0
 13 14  1  0  0  0  0
 14 19  1  0  0  0  0
 15 16  1  0  0  0  0
 15 14  2  0  0  0  0
 16 17  2  0  0  0  0
 17 20  1  0  0  0  0
 17 18  1  0  0  0  0
 18 22  1  0  0  0  0
 19 18  2  0  0  0  0
 21 20  1  0  0  0  0
 22 23  1  0  0  0  0
M  END
>  <MODEL>
6

>  <REMARK>
 VINA RESULT:    -5.343      6.220      8.940
 INTER + INTRA:          -8.324
 INTER:                  -7.854
 INTRA:                  -0.470
 UNBOUND:                -0.482
  Name = CHEMBL1950215
  11 active torsions:
  status: ('A' for Active; 'I' for Inactive)
    1  A    between atoms: C_1  and  O_2
    2  A    between atoms: O_2  and  C_3
    3  A    between atoms: C_3  and  C_5
    4  A    between atoms: C_5  and  C_6
    5  A    between atoms: C_5  and  N_8
    6  A    between atoms: C_6  and  S_7
    7  A    between atoms: C_9  and  C_11
    8  A    between atoms: C_11  and  C_12
    9  A    between atoms: C_15  and  O_16
   10  A    between atoms: C_17  and  O_18
   11  A    between atoms: O_18  and  C_19
                            x       y       z     vdW  Elec       q    Type
                         _______ _______ _______ _____ _____    ______ ____

>  <TORSDO>
F 9

>  <SCORE>
-5.343

>  <RMSD_LB>
6.220

>  <RMSD_UB>
8.940

$$$$
CHEMBL1950215
 OpenBabel10172500493D

 23 23  0  0  1  0  0  0  0  0999 V2000
  146.8420  140.0400  153.5520 N   0  0  0  0  0  0  0  0  0  0  0  0
  147.0600  141.3740  153.8280 C   0  0  0  0  0  0  0  0  0  0  0  0
  147.9890  141.7650  154.5220 O   0  0  0  0  0  0  0  0  0  0  0  0
  146.1110  139.7930  152.9420 H   0  0  0  0  0  0  0  0  0  0  0  0
  147.6670  138.9830  154.1370 C   0  0  2  0  0  3  0  0  0  0  0  0
  148.4190  138.2200  153.0390 C   0  0  0  0  0  0  0  0  0  0  0  0
  149.4670  137.6120  153.2230 O   0  0  0  0  0  0  0  0  0  0  0  0
  147.4210  137.1600  151.1800 C   0  0  0  0  0  1  0  0  0  0  0  0
  147.7990  138.3750  151.8380 O   0  0  0  0  0  0  0  0  0  0  0  0
  146.8190  138.0140  154.9680 C   0  0  0  0  0  2  0  0  0  0  0  0
  145.2420  137.5290  154.1610 S   0  0  0  0  0  0  0  0  0  0  0  0
  145.3270  137.7600  152.8240 H   0  0  0  0  0  0  0  0  0  0  0  0
  146.0720  142.3130  153.1540 C   0  0  0  0  0  2  0  0  0  0  0  0
  145.9170  141.9850  151.6870 C   0  0  0  0  0  0  0  0  0  0  0  0
  146.8360  142.4850  150.7610 C   0  0  0  0  0  3  0  0  0  0  0  0
  146.7610  142.1180  149.4200 C   0  0  0  0  0  3  0  0  0  0  0  0
  145.7510  141.2540  148.9830 C   0  0  0  0  0  0  0  0  0  0  0  0
  144.7940  140.7730  149.8820 C   0  0  0  0  0  0  0  0  0  0  0  0
  144.8850  141.1490  151.2310 C   0  0  0  0  0  3  0  0  0  0  0  0
  145.7470  140.8960  147.6630 O   0  0  0  0  0  0  0  0  0  0  0  0
  145.4390  141.4990  147.0150 H   0  0  0  0  0  0  0  0  0  0  0  0
  143.7410  139.9330  149.6310 O   0  0  0  0  0  0  0  0  0  0  0  0
  142.5570  140.0980  150.4010 C   0  0  0  0  0  1  0  0  0  0  0  0
  1  2  1  0  0  0  0
  1  5  1  0  0  0  0
  2  3  2  0  0  0  0
  4  1  1  0  0  0  0
  5 10  1  6  0  0  0
  6  7  2  0  0  0  0
  6  5  1  0  0  0  0
  8  9  1  0  0  0  0
  9  6  1  0  0  0  0
 11 10  1  0  0  0  0
 12 11  1  0  0  0  0
 13  2  1  0  0  0  0
 14 13  1  0  0  0  0
 15 14  2  0  0  0  0
 16 15  1  0  0  0  0
 17 16  2  0  0  0  0
 17 18  1  0  0  0  0
 18 19  2  0  0  0  0
 19 14  1  0  0  0  0
 20 17  1  0  0  0  0
 21 20  1  0  0  0  0
 22 18  1  0  0  0  0
 22 23  1  0  0  0  0
M  END
>  <MODEL>
7

>  <REMARK>
 VINA RESULT:    -5.324      9.197     11.853
 INTER + INTRA:          -8.297
 INTER:                  -7.759
 INTRA:                  -0.537
 UNBOUND:                -0.482
  Name = CHEMBL1950215
  11 active torsions:
  status: ('A' for Active; 'I' for Inactive)
    1  A    between atoms: C_1  and  O_2
    2  A    between atoms: O_2  and  C_3
    3  A    between atoms: C_3  and  C_5
    4  A    between atoms: C_5  and  C_6
    5  A    between atoms: C_5  and  N_8
    6  A    between atoms: C_6  and  S_7
    7  A    between atoms: C_9  and  C_11
    8  A    between atoms: C_11  and  C_12
    9  A    between atoms: C_15  and  O_16
   10  A    between atoms: C_17  and  O_18
   11  A    between atoms: O_18  and  C_19
                            x       y       z     vdW  Elec       q    Type
                         _______ _______ _______ _____ _____    ______ ____

>  <TORSDO>
F 9

>  <SCORE>
-5.324

>  <RMSD_LB>
9.197

>  <RMSD_UB>
11.853

$$$$
CHEMBL1950215
 OpenBabel10172500493D

 23 23  0  0  1  0  0  0  0  0999 V2000
  134.4500  134.1880  148.3030 N   0  0  0  0  0  0  0  0  0  0  0  0
  134.5440  133.2450  147.3020 C   0  0  0  0  0  0  0  0  0  0  0  0
  133.5750  132.8530  146.6650 O   0  0  0  0  0  0  0  0  0  0  0  0
  135.2740  134.5030  148.7400 H   0  0  0  0  0  0  0  0  0  0  0  0
  133.1640  134.7350  148.7340 C   0  0  2  0  0  3  0  0  0  0  0  0
  133.1960  136.2690  148.7070 C   0  0  0  0  0  0  0  0  0  0  0  0
  132.7390  136.9790  149.5940 O   0  0  0  0  0  0  0  0  0  0  0  0
  132.7910  137.1840  146.5680 C   0  0  0  0  0  1  0  0  0  0  0  0
  133.7340  136.7150  147.5380 O   0  0  0  0  0  0  0  0  0  0  0  0
  132.7930  134.2400  150.1360 C   0  0  0  0  0  2  0  0  0  0  0  0
  134.2370  134.0030  151.2460 S   0  0  0  0  0  0  0  0  0  0  0  0
  135.3120  134.6620  150.7390 H   0  0  0  0  0  0  0  0  0  0  0  0
  135.9650  132.7740  147.0280 C   0  0  0  0  0  2  0  0  0  0  0  0
  136.2940  132.8510  145.5560 C   0  0  0  0  0  0  0  0  0  0  0  0
  136.7280  131.7090  144.8790 C   0  0  0  0  0  3  0  0  0  0  0  0
  136.9470  131.7400  143.5040 C   0  0  0  0  0  3  0  0  0  0  0  0
  136.7490  132.9270  142.7880 C   0  0  0  0  0  0  0  0  0  0  0  0
  136.3550  134.0940  143.4480 C   0  0  0  0  0  0  0  0  0  0  0  0
  136.1350  134.0450  144.8340 C   0  0  0  0  0  3  0  0  0  0  0  0
  136.9410  132.8920  141.4340 O   0  0  0  0  0  0  0  0  0  0  0  0
  137.3760  132.1610  141.0410 H   0  0  0  0  0  0  0  0  0  0  0  0
  136.1240  135.3350  142.9140 O   0  0  0  0  0  0  0  0  0  0  0  0
  135.2700  136.2200  143.6260 C   0  0  0  0  0  1  0  0  0  0  0  0
  1  5  1  0  0  0  0
  1  4  1  0  0  0  0
  2  1  1  0  0  0  0
  3  2  2  0  0  0  0
  5 10  1  1  0  0  0
  6  5  1  0  0  0  0
  6  7  2  0  0  0  0
  8  9  1  0  0  0  0
  9  6  1  0  0  0  0
 10 11  1  0  0  0  0
 12 11  1  0  0  0  0
 13  2  1  0  0  0  0
 14 13  1  0  0  0  0
 15 14  1  0  0  0  0
 16 15  2  0  0  0  0
 17 18  2  0  0  0  0
 17 16  1  0  0  0  0
 18 19  1  0  0  0  0
 19 14  2  0  0  0  0
 20 17  1  0  0  0  0
 21 20  1  0  0  0  0
 22 18  1  0  0  0  0
 22 23  1  0  0  0  0
M  END
>  <MODEL>
8

>  <REMARK>
 VINA RESULT:    -5.315      5.499      7.761
 INTER + INTRA:          -8.283
 INTER:                  -7.632
 INTRA:                  -0.651
 UNBOUND:                -0.482
  Name = CHEMBL1950215
  11 active torsions:
  status: ('A' for Active; 'I' for Inactive)
    1  A    between atoms: C_1  and  O_2
    2  A    between atoms: O_2  and  C_3
    3  A    between atoms: C_3  and  C_5
    4  A    between atoms: C_5  and  C_6
    5  A    between atoms: C_5  and  N_8
    6  A    between atoms: C_6  and  S_7
    7  A    between atoms: C_9  and  C_11
    8  A    between atoms: C_11  and  C_12
    9  A    between atoms: C_15  and  O_16
   10  A    between atoms: C_17  and  O_18
   11  A    between atoms: O_18  and  C_19
                            x       y       z     vdW  Elec       q    Type
                         _______ _______ _______ _____ _____    ______ ____

>  <TORSDO>
F 9

>  <SCORE>
-5.315

>  <RMSD_LB>
5.499

>  <RMSD_UB>
7.761

$$$$
CHEMBL1950215
 OpenBabel10172500493D

 23 23  0  0  1  0  0  0  0  0999 V2000
  140.3810  137.8070  153.8830 N   0  0  0  0  0  0  0  0  0  0  0  0
  139.6280  138.5050  154.8040 C   0  0  0  0  0  0  0  0  0  0  0  0
  139.1110  139.5860  154.5570 O   0  0  0  0  0  0  0  0  0  0  0  0
  140.7240  136.9170  154.1240 H   0  0  0  0  0  0  0  0  0  0  0  0
  140.6850  138.3500  152.5600 C   0  0  2  0  0  3  0  0  0  0  0  0
  139.7940  137.6980  151.4940 C   0  0  0  0  0  0  0  0  0  0  0  0
  140.2150  136.9740  150.6000 O   0  0  0  0  0  0  0  0  0  0  0  0
  137.5140  137.1240  151.2690 C   0  0  0  0  0  1  0  0  0  0  0  0
  138.5000  138.0920  151.6460 O   0  0  0  0  0  0  0  0  0  0  0  0
  142.1620  138.1540  152.2050 C   0  0  0  0  0  2  0  0  0  0  0  0
  142.9190  139.5970  151.3570 S   0  0  0  0  0  0  0  0  0  0  0  0
  143.6900  139.1630  150.3250 H   0  0  0  0  0  0  0  0  0  0  0  0
  139.4590  137.7860  156.1340 C   0  0  0  0  0  2  0  0  0  0  0  0
  138.1270  137.0770  156.2090 C   0  0  0  0  0  0  0  0  0  0  0  0
  137.4840  136.6770  155.0350 C   0  0  0  0  0  3  0  0  0  0  0  0
  136.3020  135.9420  155.0900 C   0  0  0  0  0  3  0  0  0  0  0  0
  135.7370  135.6120  156.3270 C   0  0  0  0  0  0  0  0  0  0  0  0
  136.3380  136.0360  157.5150 C   0  0  0  0  0  0  0  0  0  0  0  0
  137.5310  136.7730  157.4440 C   0  0  0  0  0  3  0  0  0  0  0  0
  134.5970  134.8570  156.3240 O   0  0  0  0  0  0  0  0  0  0  0  0
  133.8100  135.1940  156.7050 H   0  0  0  0  0  0  0  0  0  0  0  0
  135.9240  135.8130  158.8020 O   0  0  0  0  0  0  0  0  0  0  0  0
  136.3630  134.6250  159.4480 C   0  0  0  0  0  1  0  0  0  0  0  0
  1  4  1  0  0  0  0
  1  2  1  0  0  0  0
  2 13  1  0  0  0  0
  3  2  2  0  0  0  0
  5 10  1  6  0  0  0
  5  1  1  0  0  0  0
  6  9  1  0  0  0  0
  6  5  1  0  0  0  0
  7  6  2  0  0  0  0
  8  9  1  0  0  0  0
 11 10  1  0  0  0  0
 12 11  1  0  0  0  0
 13 14  1  0  0  0  0
 14 19  1  0  0  0  0
 15 16  1  0  0  0  0
 15 14  2  0  0  0  0
 16 17  2  0  0  0  0
 17 18  1  0  0  0  0
 18 22  1  0  0  0  0
 19 18  2  0  0  0  0
 20 17  1  0  0  0  0
 20 21  1  0  0  0  0
 22 23  1  0  0  0  0
M  END
>  <MODEL>
9

>  <REMARK>
 VINA RESULT:    -5.140      3.943      7.059
 INTER + INTRA:          -8.026
 INTER:                  -7.544
 INTRA:                  -0.482
 UNBOUND:                -0.482
  Name = CHEMBL1950215
  11 active torsions:
  status: ('A' for Active; 'I' for Inactive)
    1  A    between atoms: C_1  and  O_2
    2  A    between atoms: O_2  and  C_3
    3  A    between atoms: C_3  and  C_5
    4  A    between atoms: C_5  and  C_6
    5  A    between atoms: C_5  and  N_8
    6  A    between atoms: C_6  and  S_7
    7  A    between atoms: C_9  and  C_11
    8  A    between atoms: C_11  and  C_12
    9  A    between atoms: C_15  and  O_16
   10  A    between atoms: C_17  and  O_18
   11  A    between atoms: O_18  and  C_19
                            x       y       z     vdW  Elec       q    Type
                         _______ _______ _______ _____ _____    ______ ____

>  <TORSDO>
F 9

>  <SCORE>
-5.140

>  <RMSD_LB>
3.943

>  <RMSD_UB>
7.059

$$$$
