CHEMBL365972
 OpenBabel10172500183D

 24 24  0  0  0  0  0  0  0  0999 V2000
  144.5030  139.5760  153.2790 C   0  0  0  0  0  0  0  0  0  0  0  0
  144.1030  139.5090  154.4400 O   0  0  0  0  0  0  0  0  0  0  0  0
  144.1850  138.6310  152.3290 N   0  0  0  0  0  0  0  0  0  0  0  0
  144.5010  138.7470  151.4040 H   0  0  0  0  0  0  0  0  0  0  0  0
  145.3430  140.7240  152.7590 C   0  0  0  0  0  2  0  0  0  0  0  0
  144.8820  141.1240  151.3590 C   0  0  0  0  0  2  0  0  0  0  0  0
  145.5920  142.3760  150.8510 C   0  0  0  0  0  2  0  0  0  0  0  0
  146.8650  141.9990  150.0930 C   0  0  0  0  0  2  0  0  0  0  0  0
  148.1060  142.5490  150.7880 C   0  0  0  0  0  2  0  0  0  0  0  0
  148.7250  141.5000  151.7100 C   0  0  0  0  0  2  0  0  0  0  0  0
  148.7130  141.1740  154.1980 C   0  0  0  0  0  1  0  0  0  0  0  0
  149.0950  142.1060  153.0600 C   0  0  0  0  0  2  0  0  0  0  0  0
  143.3930  137.4690  152.6710 C   0  0  0  0  0  2  0  0  0  0  0  0
  141.9290  137.6310  152.3290 C   0  0  0  0  0  0  0  0  0  0  0  0
  141.4580  137.2430  151.0670 C   0  0  0  0  0  3  0  0  0  0  0  0
  140.1050  137.3790  150.7420 C   0  0  0  0  0  0  0  0  0  0  0  0
  139.4790  136.7650  148.8380 I   0  0  0  0  0  0  0  0  0  0  0  0
  139.1960  137.9110  151.6660 C   0  0  0  0  0  0  0  0  0  0  0  0
  139.6460  138.3060  152.9330 C   0  0  0  0  0  0  0  0  0  0  0  0
  141.0110  138.1680  153.2470 C   0  0  0  0  0  3  0  0  0  0  0  0
  137.8780  138.0480  151.3150 O   0  0  0  0  0  0  0  0  0  0  0  0
  137.4620  138.8850  151.3760 H   0  0  0  0  0  0  0  0  0  0  0  0
  138.9090  138.8350  153.9630 O   0  0  0  0  0  0  0  0  0  0  0  0
  139.0300  138.2340  155.2460 C   0  0  0  0  0  1  0  0  0  0  0  0
  1  2  2  0  0  0  0
  3 13  1  0  0  0  0
  3  1  1  0  0  0  0
  4  3  1  0  0  0  0
  5  1  1  0  0  0  0
  6  5  1  0  0  0  0
  7  6  1  0  0  0  0
  8  9  1  0  0  0  0
  8  7  1  0  0  0  0
  9 10  1  0  0  0  0
 10 12  1  0  0  0  0
 12 11  1  0  0  0  0
 14 13  1  0  0  0  0
 14 20  1  0  0  0  0
 15 14  2  0  0  0  0
 16 15  1  0  0  0  0
 16 18  2  0  0  0  0
 17 16  1  0  0  0  0
 18 19  1  0  0  0  0
 19 20  2  0  0  0  0
 19 23  1  0  0  0  0
 21 22  1  0  0  0  0
 21 18  1  0  0  0  0
 23 24  1  0  0  0  0
M  END
>  <MODEL>
1

>  <REMARK>
 VINA RESULT:    -5.791      0.000      0.000
 INTER + INTRA:         -10.985
 INTER:                  -9.964
 INTRA:                  -1.021
 UNBOUND:                -1.639
  Name = CHEMBL365972
  13 active torsions:
  status: ('A' for Active; 'I' for Inactive)
    1  A    between atoms: C_1  and  C_2
    2  A    between atoms: C_2  and  C_3
    3  A    between atoms: C_3  and  C_4
    4  A    between atoms: C_4  and  C_5
    5  A    between atoms: C_5  and  C_6
    6  A    between atoms: C_6  and  C_7
    7  A    between atoms: C_7  and  C_8
    8  A    between atoms: C_8  and  C_9
    9  A    between atoms: N_11  and  C_12
   10  A    between atoms: C_12  and  C_13
   11  A    between atoms: C_17  and  O_18
   12  A    between atoms: C_19  and  O_20
   13  A    between atoms: O_20  and  C_21
                            x       y       z     vdW  Elec       q    Type
                         _______ _______ _______ _____ _____    ______ ____

>  <TORSDO>
F 11

>  <SCORE>
-5.791

>  <RMSD_LB>
0.000

>  <RMSD_UB>
0.000

$$$$
CHEMBL365972
 OpenBabel10172500183D

 24 24  0  0  0  0  0  0  0  0999 V2000
  144.9310  139.8260  153.6130 C   0  0  0  0  0  0  0  0  0  0  0  0
  144.7480  139.8800  154.8290 O   0  0  0  0  0  0  0  0  0  0  0  0
  144.4670  138.7840  152.8400 N   0  0  0  0  0  0  0  0  0  0  0  0
  144.6100  138.8030  151.8660 H   0  0  0  0  0  0  0  0  0  0  0  0
  145.6390  140.9150  152.8340 C   0  0  0  0  0  2  0  0  0  0  0  0
  146.3590  141.8640  153.7900 C   0  0  0  0  0  2  0  0  0  0  0  0
  147.8760  141.7990  153.6360 C   0  0  0  0  0  2  0  0  0  0  0  0
  148.2780  140.5740  152.8130 C   0  0  0  0  0  2  0  0  0  0  0  0
  148.8250  139.4650  153.7060 C   0  0  0  0  0  2  0  0  0  0  0  0
  148.2540  138.1070  153.3010 C   0  0  0  0  0  2  0  0  0  0  0  0
  147.7460  138.2130  155.7560 C   0  0  0  0  0  1  0  0  0  0  0  0
  147.5010  137.4610  154.4590 C   0  0  0  0  0  2  0  0  0  0  0  0
  143.7750  137.6630  153.4380 C   0  0  0  0  0  2  0  0  0  0  0  0
  142.2710  137.8020  153.3840 C   0  0  0  0  0  0  0  0  0  0  0  0
  141.5950  137.6280  152.1680 C   0  0  0  0  0  3  0  0  0  0  0  0
  140.2030  137.7440  152.1060 C   0  0  0  0  0  0  0  0  0  0  0  0
  139.2680  137.4600  150.2520 I   0  0  0  0  0  0  0  0  0  0  0  0
  139.4580  138.0420  153.2550 C   0  0  0  0  0  0  0  0  0  0  0  0
  140.1130  138.2190  154.4810 C   0  0  0  0  0  0  0  0  0  0  0  0
  141.5150  138.1040  154.5290 C   0  0  0  0  0  3  0  0  0  0  0  0
  138.0960  138.1650  153.1630 O   0  0  0  0  0  0  0  0  0  0  0  0
  137.5400  137.6350  153.6990 H   0  0  0  0  0  0  0  0  0  0  0  0
  139.5560  138.5040  155.7020 O   0  0  0  0  0  0  0  0  0  0  0  0
  139.6910  137.5390  156.7380 C   0  0  0  0  0  1  0  0  0  0  0  0
  1  2  2  0  0  0  0
  3 13  1  0  0  0  0
  3  1  1  0  0  0  0
  4  3  1  0  0  0  0
  5  1  1  0  0  0  0
  5  6  1  0  0  0  0
  7  6  1  0  0  0  0
  8  7  1  0  0  0  0
  8  9  1  0  0  0  0
 10  9  1  0  0  0  0
 10 12  1  0  0  0  0
 12 11  1  0  0  0  0
 14 13  1  0  0  0  0
 14 20  1  0  0  0  0
 15 14  2  0  0  0  0
 16 15  1  0  0  0  0
 16 18  2  0  0  0  0
 17 16  1  0  0  0  0
 18 19  1  0  0  0  0
 19 20  2  0  0  0  0
 19 23  1  0  0  0  0
 21 18  1  0  0  0  0
 21 22  1  0  0  0  0
 23 24  1  0  0  0  0
M  END
>  <MODEL>
2

>  <REMARK>
 VINA RESULT:    -5.733      1.751      2.442
 INTER + INTRA:         -10.891
 INTER:                  -9.615
 INTRA:                  -1.276
 UNBOUND:                -1.639
  Name = CHEMBL365972
  13 active torsions:
  status: ('A' for Active; 'I' for Inactive)
    1  A    between atoms: C_1  and  C_2
    2  A    between atoms: C_2  and  C_3
    3  A    between atoms: C_3  and  C_4
    4  A    between atoms: C_4  and  C_5
    5  A    between atoms: C_5  and  C_6
    6  A    between atoms: C_6  and  C_7
    7  A    between atoms: C_7  and  C_8
    8  A    between atoms: C_8  and  C_9
    9  A    between atoms: N_11  and  C_12
   10  A    between atoms: C_12  and  C_13
   11  A    between atoms: C_17  and  O_18
   12  A    between atoms: C_19  and  O_20
   13  A    between atoms: O_20  and  C_21
                            x       y       z     vdW  Elec       q    Type
                         _______ _______ _______ _____ _____    ______ ____

>  <TORSDO>
F 11

>  <SCORE>
-5.733

>  <RMSD_LB>
1.751

>  <RMSD_UB>
2.442

$$$$
CHEMBL365972
 OpenBabel10172500183D

 24 24  0  0  0  0  0  0  0  0999 V2000
  145.5280  138.3830  153.5010 C   0  0  0  0  0  0  0  0  0  0  0  0
  146.1240  137.8550  152.5630 O   0  0  0  0  0  0  0  0  0  0  0  0
  144.1530  138.3970  153.5910 N   0  0  0  0  0  0  0  0  0  0  0  0
  143.7230  138.8020  154.3780 H   0  0  0  0  0  0  0  0  0  0  0  0
  146.2370  139.0270  154.6740 C   0  0  0  0  0  2  0  0  0  0  0  0
  147.6260  139.5030  154.2530 C   0  0  0  0  0  2  0  0  0  0  0  0
  147.7980  141.0100  154.4290 C   0  0  0  0  0  2  0  0  0  0  0  0
  148.4720  141.6180  153.1990 C   0  0  0  0  0  2  0  0  0  0  0  0
  147.7030  141.2810  151.9250 C   0  0  0  0  0  2  0  0  0  0  0  0
  148.0410  142.2640  150.8070 C   0  0  0  0  0  2  0  0  0  0  0  0
  145.5520  142.5740  150.8960 C   0  0  0  0  0  1  0  0  0  0  0  0
  146.7920  142.6540  150.0220 C   0  0  0  0  0  2  0  0  0  0  0  0
  143.3320  137.8270  152.5450 C   0  0  0  0  0  2  0  0  0  0  0  0
  141.8530  137.9040  152.8470 C   0  0  0  0  0  0  0  0  0  0  0  0
  140.9170  137.6810  151.8280 C   0  0  0  0  0  3  0  0  0  0  0  0
  139.5470  137.7410  152.0970 C   0  0  0  0  0  0  0  0  0  0  0  0
  138.2130  137.3840  150.5190 I   0  0  0  0  0  0  0  0  0  0  0  0
  139.0820  138.0310  153.3870 C   0  0  0  0  0  0  0  0  0  0  0  0
  139.9990  138.2570  154.4210 C   0  0  0  0  0  0  0  0  0  0  0  0
  141.3770  138.1980  154.1360 C   0  0  0  0  0  3  0  0  0  0  0  0
  137.7330  138.0980  153.6180 O   0  0  0  0  0  0  0  0  0  0  0  0
  137.2980  138.9290  153.6180 H   0  0  0  0  0  0  0  0  0  0  0  0
  139.7350  138.5430  155.7360 O   0  0  0  0  0  0  0  0  0  0  0  0
  139.7700  137.4720  156.6710 C   0  0  0  0  0  1  0  0  0  0  0  0
  1  3  1  0  0  0  0
  1  5  1  0  0  0  0
  2  1  2  0  0  0  0
  3  4  1  0  0  0  0
  6  7  1  0  0  0  0
  6  5  1  0  0  0  0
  8  7  1  0  0  0  0
  9  8  1  0  0  0  0
 10  9  1  0  0  0  0
 12 10  1  0  0  0  0
 12 11  1  0  0  0  0
 13 14  1  0  0  0  0
 13  3  1  0  0  0  0
 14 20  1  0  0  0  0
 15 16  1  0  0  0  0
 15 14  2  0  0  0  0
 16 18  2  0  0  0  0
 17 16  1  0  0  0  0
 18 21  1  0  0  0  0
 18 19  1  0  0  0  0
 19 23  1  0  0  0  0
 20 19  2  0  0  0  0
 21 22  1  0  0  0  0
 23 24  1  0  0  0  0
M  END
>  <MODEL>
3

>  <REMARK>
 VINA RESULT:    -5.723      1.446      2.543
 INTER + INTRA:         -10.875
 INTER:                 -10.116
 INTRA:                  -0.759
 UNBOUND:                -1.639
  Name = CHEMBL365972
  13 active torsions:
  status: ('A' for Active; 'I' for Inactive)
    1  A    between atoms: C_1  and  C_2
    2  A    between atoms: C_2  and  C_3
    3  A    between atoms: C_3  and  C_4
    4  A    between atoms: C_4  and  C_5
    5  A    between atoms: C_5  and  C_6
    6  A    between atoms: C_6  and  C_7
    7  A    between atoms: C_7  and  C_8
    8  A    between atoms: C_8  and  C_9
    9  A    between atoms: N_11  and  C_12
   10  A    between atoms: C_12  and  C_13
   11  A    between atoms: C_17  and  O_18
   12  A    between atoms: C_19  and  O_20
   13  A    between atoms: O_20  and  C_21
                            x       y       z     vdW  Elec       q    Type
                         _______ _______ _______ _____ _____    ______ ____

>  <TORSDO>
F 11

>  <SCORE>
-5.723

>  <RMSD_LB>
1.446

>  <RMSD_UB>
2.543

$$$$
CHEMBL365972
 OpenBabel10172500183D

 24 24  0  0  0  0  0  0  0  0999 V2000
  147.1230  139.1140  154.2190 C   0  0  0  0  0  0  0  0  0  0  0  0
  146.1710  139.3530  154.9610 O   0  0  0  0  0  0  0  0  0  0  0  0
  147.2610  137.9150  153.5550 N   0  0  0  0  0  0  0  0  0  0  0  0
  148.0230  137.7840  152.9450 H   0  0  0  0  0  0  0  0  0  0  0  0
  148.2120  140.1220  153.9200 C   0  0  0  0  0  2  0  0  0  0  0  0
  147.7210  141.5360  154.2270 C   0  0  0  0  0  2  0  0  0  0  0  0
  147.0940  142.2070  153.0080 C   0  0  0  0  0  2  0  0  0  0  0  0
  148.0020  142.0560  151.7880 C   0  0  0  0  0  2  0  0  0  0  0  0
  147.2520  142.3740  150.4980 C   0  0  0  0  0  2  0  0  0  0  0  0
  145.7470  142.4420  150.7450 C   0  0  0  0  0  2  0  0  0  0  0  0
  144.2170  140.5280  151.2900 C   0  0  0  0  0  1  0  0  0  0  0  0
  145.0460  141.1980  150.2070 C   0  0  0  0  0  2  0  0  0  0  0  0
  146.3040  136.8460  153.7400 C   0  0  0  0  0  2  0  0  0  0  0  0
  145.2110  136.8460  152.6950 C   0  0  0  0  0  0  0  0  0  0  0  0
  143.9410  137.3480  153.0100 C   0  0  0  0  0  3  0  0  0  0  0  0
  142.9250  137.3610  152.0500 C   0  0  0  0  0  0  0  0  0  0  0  0
  141.0560  138.1390  152.5990 I   0  0  0  0  0  0  0  0  0  0  0  0
  143.1530  136.8680  150.7580 C   0  0  0  0  0  0  0  0  0  0  0  0
  144.4150  136.3620  150.4220 C   0  0  0  0  0  0  0  0  0  0  0  0
  145.4290  136.3500  151.3980 C   0  0  0  0  0  3  0  0  0  0  0  0
  142.1340  136.8800  149.8420 O   0  0  0  0  0  0  0  0  0  0  0  0
  141.5860  136.1260  149.7410 H   0  0  0  0  0  0  0  0  0  0  0  0
  144.8250  135.8500  149.2160 O   0  0  0  0  0  0  0  0  0  0  0  0
  145.2640  136.7640  148.2190 C   0  0  0  0  0  1  0  0  0  0  0  0
  1  2  2  0  0  0  0
  3 13  1  0  0  0  0
  3  1  1  0  0  0  0
  4  3  1  0  0  0  0
  5  1  1  0  0  0  0
  5  6  1  0  0  0  0
  7  6  1  0  0  0  0
  8  7  1  0  0  0  0
  9 10  1  0  0  0  0
  9  8  1  0  0  0  0
 12 10  1  0  0  0  0
 12 11  1  0  0  0  0
 14 15  1  0  0  0  0
 14 13  1  0  0  0  0
 16 17  1  0  0  0  0
 16 15  2  0  0  0  0
 18 16  1  0  0  0  0
 19 18  2  0  0  0  0
 19 20  1  0  0  0  0
 20 14  2  0  0  0  0
 21 18  1  0  0  0  0
 22 21  1  0  0  0  0
 23 19  1  0  0  0  0
 24 23  1  0  0  0  0
M  END
>  <MODEL>
4

>  <REMARK>
 VINA RESULT:    -5.659      2.825      4.484
 INTER + INTRA:         -10.772
 INTER:                  -9.400
 INTRA:                  -1.372
 UNBOUND:                -1.639
  Name = CHEMBL365972
  13 active torsions:
  status: ('A' for Active; 'I' for Inactive)
    1  A    between atoms: C_1  and  C_2
    2  A    between atoms: C_2  and  C_3
    3  A    between atoms: C_3  and  C_4
    4  A    between atoms: C_4  and  C_5
    5  A    between atoms: C_5  and  C_6
    6  A    between atoms: C_6  and  C_7
    7  A    between atoms: C_7  and  C_8
    8  A    between atoms: C_8  and  C_9
    9  A    between atoms: N_11  and  C_12
   10  A    between atoms: C_12  and  C_13
   11  A    between atoms: C_17  and  O_18
   12  A    between atoms: C_19  and  O_20
   13  A    between atoms: O_20  and  C_21
                            x       y       z     vdW  Elec       q    Type
                         _______ _______ _______ _____ _____    ______ ____

>  <TORSDO>
F 11

>  <SCORE>
-5.659

>  <RMSD_LB>
2.825

>  <RMSD_UB>
4.484

$$$$
CHEMBL365972
 OpenBabel10172500183D

 24 24  0  0  0  0  0  0  0  0999 V2000
  145.6250  138.0520  150.3790 C   0  0  0  0  0  0  0  0  0  0  0  0
  146.2660  137.4630  151.2480 O   0  0  0  0  0  0  0  0  0  0  0  0
  144.2830  137.8230  150.1650 N   0  0  0  0  0  0  0  0  0  0  0  0
  143.8060  138.3440  149.4800 H   0  0  0  0  0  0  0  0  0  0  0  0
  146.2250  139.1180  149.4870 C   0  0  0  0  0  2  0  0  0  0  0  0
  145.4160  140.4100  149.5910 C   0  0  0  0  0  2  0  0  0  0  0  0
  146.2970  141.6220  149.8800 C   0  0  0  0  0  2  0  0  0  0  0  0
  145.5490  142.6290  150.7550 C   0  0  0  0  0  2  0  0  0  0  0  0
  145.8080  142.3720  152.2360 C   0  0  0  0  0  2  0  0  0  0  0  0
  147.2660  141.9850  152.4760 C   0  0  0  0  0  2  0  0  0  0  0  0
  148.9300  141.9910  154.3550 C   0  0  0  0  0  1  0  0  0  0  0  0
  147.5090  141.6440  153.9430 C   0  0  0  0  0  2  0  0  0  0  0  0
  143.5650  136.8290  150.9330 C   0  0  0  0  0  2  0  0  0  0  0  0
  142.2930  137.3650  151.5500 C   0  0  0  0  0  0  0  0  0  0  0  0
  141.0850  137.2870  150.8430 C   0  0  0  0  0  3  0  0  0  0  0  0
  139.9000  137.7700  151.4050 C   0  0  0  0  0  0  0  0  0  0  0  0
  138.1350  137.6050  150.2870 I   0  0  0  0  0  0  0  0  0  0  0  0
  139.8970  138.3480  152.6820 C   0  0  0  0  0  0  0  0  0  0  0  0
  141.0930  138.4360  153.4070 C   0  0  0  0  0  0  0  0  0  0  0  0
  142.2800  137.9500  152.8270 C   0  0  0  0  0  3  0  0  0  0  0  0
  138.7240  138.8270  153.2030 O   0  0  0  0  0  0  0  0  0  0  0  0
  138.4120  139.6750  152.9530 H   0  0  0  0  0  0  0  0  0  0  0  0
  141.2830  138.9560  154.6630 O   0  0  0  0  0  0  0  0  0  0  0  0
  140.9890  138.1250  155.7780 C   0  0  0  0  0  1  0  0  0  0  0  0
  1  2  2  0  0  0  0
  3  1  1  0  0  0  0
  3 13  1  0  0  0  0
  4  3  1  0  0  0  0
  5  6  1  0  0  0  0
  5  1  1  0  0  0  0
  6  7  1  0  0  0  0
  7  8  1  0  0  0  0
  8  9  1  0  0  0  0
  9 10  1  0  0  0  0
 10 12  1  0  0  0  0
 12 11  1  0  0  0  0
 13 14  1  0  0  0  0
 14 20  1  0  0  0  0
 15 16  1  0  0  0  0
 15 14  2  0  0  0  0
 16 18  2  0  0  0  0
 17 16  1  0  0  0  0
 18 21  1  0  0  0  0
 18 19  1  0  0  0  0
 19 23  1  0  0  0  0
 20 19  2  0  0  0  0
 22 21  1  0  0  0  0
 23 24  1  0  0  0  0
M  END
>  <MODEL>
5

>  <REMARK>
 VINA RESULT:    -5.565      1.873      2.177
 INTER + INTRA:         -10.620
 INTER:                  -9.779
 INTRA:                  -0.841
 UNBOUND:                -1.639
  Name = CHEMBL365972
  13 active torsions:
  status: ('A' for Active; 'I' for Inactive)
    1  A    between atoms: C_1  and  C_2
    2  A    between atoms: C_2  and  C_3
    3  A    between atoms: C_3  and  C_4
    4  A    between atoms: C_4  and  C_5
    5  A    between atoms: C_5  and  C_6
    6  A    between atoms: C_6  and  C_7
    7  A    between atoms: C_7  and  C_8
    8  A    between atoms: C_8  and  C_9
    9  A    between atoms: N_11  and  C_12
   10  A    between atoms: C_12  and  C_13
   11  A    between atoms: C_17  and  O_18
   12  A    between atoms: C_19  and  O_20
   13  A    between atoms: O_20  and  C_21
                            x       y       z     vdW  Elec       q    Type
                         _______ _______ _______ _____ _____    ______ ____

>  <TORSDO>
F 11

>  <SCORE>
-5.565

>  <RMSD_LB>
1.873

>  <RMSD_UB>
2.177

$$$$
CHEMBL365972
 OpenBabel10172500183D

 24 24  0  0  0  0  0  0  0  0999 V2000
  138.6510  137.7510  152.7860 C   0  0  0  0  0  0  0  0  0  0  0  0
  139.7260  138.0990  153.2740 O   0  0  0  0  0  0  0  0  0  0  0  0
  137.5840  137.3460  153.5560 N   0  0  0  0  0  0  0  0  0  0  0  0
  136.7340  137.1090  153.1200 H   0  0  0  0  0  0  0  0  0  0  0  0
  138.3730  137.7770  151.2980 C   0  0  0  0  0  2  0  0  0  0  0  0
  137.1180  136.9650  150.9820 C   0  0  0  0  0  2  0  0  0  0  0  0
  136.8320  136.9020  149.4840 C   0  0  0  0  0  2  0  0  0  0  0  0
  135.3780  136.5000  149.2340 C   0  0  0  0  0  2  0  0  0  0  0  0
  135.2880  135.3300  148.2590 C   0  0  0  0  0  2  0  0  0  0  0  0
  135.2890  133.9970  149.0050 C   0  0  0  0  0  2  0  0  0  0  0  0
  132.8580  133.5930  148.5260 C   0  0  0  0  0  1  0  0  0  0  0  0
  133.9180  133.7050  149.6080 C   0  0  0  0  0  2  0  0  0  0  0  0
  137.6940  137.2610  154.9960 C   0  0  0  0  0  2  0  0  0  0  0  0
  136.6070  136.4170  155.6230 C   0  0  0  0  0  0  0  0  0  0  0  0
  136.6450  136.1330  156.9950 C   0  0  0  0  0  3  0  0  0  0  0  0
  135.6410  135.3620  157.5880 C   0  0  0  0  0  0  0  0  0  0  0  0
  135.7650  134.9920  159.6480 I   0  0  0  0  0  0  0  0  0  0  0  0
  134.5830  134.8530  156.8240 C   0  0  0  0  0  0  0  0  0  0  0  0
  134.5250  135.1250  155.4500 C   0  0  0  0  0  0  0  0  0  0  0  0
  135.5450  135.8990  154.8650 C   0  0  0  0  0  3  0  0  0  0  0  0
  133.6210  134.0870  157.4280 O   0  0  0  0  0  0  0  0  0  0  0  0
  133.8100  133.6480  158.2350 H   0  0  0  0  0  0  0  0  0  0  0  0
  133.5710  134.7230  154.5500 O   0  0  0  0  0  0  0  0  0  0  0  0
  133.8920  134.7880  153.1660 C   0  0  0  0  0  1  0  0  0  0  0  0
  1  2  2  0  0  0  0
  1  3  1  0  0  0  0
  3 13  1  0  0  0  0
  4  3  1  0  0  0  0
  5  1  1  0  0  0  0
  6  5  1  0  0  0  0
  7  6  1  0  0  0  0
  8  7  1  0  0  0  0
  9 10  1  0  0  0  0
  9  8  1  0  0  0  0
 10 12  1  0  0  0  0
 11 12  1  0  0  0  0
 13 14  1  0  0  0  0
 14 15  1  0  0  0  0
 15 16  2  0  0  0  0
 16 17  1  0  0  0  0
 18 21  1  0  0  0  0
 18 16  1  0  0  0  0
 19 18  2  0  0  0  0
 20 19  1  0  0  0  0
 20 14  2  0  0  0  0
 21 22  1  0  0  0  0
 23 19  1  0  0  0  0
 24 23  1  0  0  0  0
M  END
>  <MODEL>
6

>  <REMARK>
 VINA RESULT:    -5.428      6.922     10.172
 INTER + INTRA:         -10.398
 INTER:                  -9.514
 INTRA:                  -0.885
 UNBOUND:                -1.639
  Name = CHEMBL365972
  13 active torsions:
  status: ('A' for Active; 'I' for Inactive)
    1  A    between atoms: C_1  and  C_2
    2  A    between atoms: C_2  and  C_3
    3  A    between atoms: C_3  and  C_4
    4  A    between atoms: C_4  and  C_5
    5  A    between atoms: C_5  and  C_6
    6  A    between atoms: C_6  and  C_7
    7  A    between atoms: C_7  and  C_8
    8  A    between atoms: C_8  and  C_9
    9  A    between atoms: N_11  and  C_12
   10  A    between atoms: C_12  and  C_13
   11  A    between atoms: C_17  and  O_18
   12  A    between atoms: C_19  and  O_20
   13  A    between atoms: O_20  and  C_21
                            x       y       z     vdW  Elec       q    Type
                         _______ _______ _______ _____ _____    ______ ____

>  <TORSDO>
F 11

>  <SCORE>
-5.428

>  <RMSD_LB>
6.922

>  <RMSD_UB>
10.172

$$$$
CHEMBL365972
 OpenBabel10172500183D

 24 24  0  0  0  0  0  0  0  0999 V2000
  145.7490  141.2780  149.7550 C   0  0  0  0  0  0  0  0  0  0  0  0
  146.3680  140.4970  149.0330 O   0  0  0  0  0  0  0  0  0  0  0  0
  144.4290  141.0820  150.0980 N   0  0  0  0  0  0  0  0  0  0  0  0
  143.9870  141.7180  150.7060 H   0  0  0  0  0  0  0  0  0  0  0  0
  146.3800  142.5050  150.3780 C   0  0  0  0  0  2  0  0  0  0  0  0
  146.0780  142.5510  151.8750 C   0  0  0  0  0  2  0  0  0  0  0  0
  147.2020  141.9440  152.7110 C   0  0  0  0  0  2  0  0  0  0  0  0
  146.6480  141.3730  154.0170 C   0  0  0  0  0  2  0  0  0  0  0  0
  145.5150  140.3860  153.7520 C   0  0  0  0  0  2  0  0  0  0  0  0
  145.4880  139.2900  154.8150 C   0  0  0  0  0  2  0  0  0  0  0  0
  147.2860  137.6450  154.2110 C   0  0  0  0  0  1  0  0  0  0  0  0
  145.7930  137.9250  154.2030 C   0  0  0  0  0  2  0  0  0  0  0  0
  143.6830  139.9570  149.5780 C   0  0  0  0  0  2  0  0  0  0  0  0
  142.3770  139.7290  150.3030 C   0  0  0  0  0  0  0  0  0  0  0  0
  142.3810  139.2350  151.6150 C   0  0  0  0  0  3  0  0  0  0  0  0
  141.1800  139.0280  152.3000 C   0  0  0  0  0  0  0  0  0  0  0  0
  141.2740  138.2970  154.2620 I   0  0  0  0  0  0  0  0  0  0  0  0
  139.9500  139.3060  151.6890 C   0  0  0  0  0  0  0  0  0  0  0  0
  139.9220  139.8010  150.3780 C   0  0  0  0  0  0  0  0  0  0  0  0
  141.1380  140.0000  149.6980 C   0  0  0  0  0  3  0  0  0  0  0  0
  138.7870  139.0790  152.3780 O   0  0  0  0  0  0  0  0  0  0  0  0
  138.6150  138.2330  152.7400 H   0  0  0  0  0  0  0  0  0  0  0  0
  138.8250  140.1350  149.6250 O   0  0  0  0  0  0  0  0  0  0  0  0
  138.3230  139.1680  148.7120 C   0  0  0  0  0  1  0  0  0  0  0  0
  1  3  1  0  0  0  0
  1  5  1  0  0  0  0
  2  1  2  0  0  0  0
  3  4  1  0  0  0  0
  5  6  1  0  0  0  0
  6  7  1  0  0  0  0
  7  8  1  0  0  0  0
  9  8  1  0  0  0  0
  9 10  1  0  0  0  0
 12 11  1  0  0  0  0
 12 10  1  0  0  0  0
 13  3  1  0  0  0  0
 13 14  1  0  0  0  0
 14 15  1  0  0  0  0
 15 16  2  0  0  0  0
 16 17  1  0  0  0  0
 18 16  1  0  0  0  0
 18 21  1  0  0  0  0
 19 18  2  0  0  0  0
 20 14  2  0  0  0  0
 20 19  1  0  0  0  0
 21 22  1  0  0  0  0
 23 19  1  0  0  0  0
 24 23  1  0  0  0  0
M  END
>  <MODEL>
7

>  <REMARK>
 VINA RESULT:    -5.334      2.792      4.013
 INTER + INTRA:         -10.247
 INTER:                  -9.029
 INTRA:                  -1.219
 UNBOUND:                -1.639
  Name = CHEMBL365972
  13 active torsions:
  status: ('A' for Active; 'I' for Inactive)
    1  A    between atoms: C_1  and  C_2
    2  A    between atoms: C_2  and  C_3
    3  A    between atoms: C_3  and  C_4
    4  A    between atoms: C_4  and  C_5
    5  A    between atoms: C_5  and  C_6
    6  A    between atoms: C_6  and  C_7
    7  A    between atoms: C_7  and  C_8
    8  A    between atoms: C_8  and  C_9
    9  A    between atoms: N_11  and  C_12
   10  A    between atoms: C_12  and  C_13
   11  A    between atoms: C_17  and  O_18
   12  A    between atoms: C_19  and  O_20
   13  A    between atoms: O_20  and  C_21
                            x       y       z     vdW  Elec       q    Type
                         _______ _______ _______ _____ _____    ______ ____

>  <TORSDO>
F 11

>  <SCORE>
-5.334

>  <RMSD_LB>
2.792

>  <RMSD_UB>
4.013

$$$$
CHEMBL365972
 OpenBabel10172500183D

 24 24  0  0  0  0  0  0  0  0999 V2000
  134.4510  134.4390  152.3850 C   0  0  0  0  0  0  0  0  0  0  0  0
  133.2710  134.7790  152.4720 O   0  0  0  0  0  0  0  0  0  0  0  0
  135.2660  134.3030  153.4870 N   0  0  0  0  0  0  0  0  0  0  0  0
  136.1930  133.9960  153.3680 H   0  0  0  0  0  0  0  0  0  0  0  0
  135.1160  134.0910  151.0700 C   0  0  0  0  0  2  0  0  0  0  0  0
  135.5310  135.3640  150.3350 C   0  0  0  0  0  2  0  0  0  0  0  0
  137.0280  135.6380  150.4520 C   0  0  0  0  0  2  0  0  0  0  0  0
  137.2730  137.0000  151.1020 C   0  0  0  0  0  2  0  0  0  0  0  0
  138.3760  137.7670  150.3780 C   0  0  0  0  0  2  0  0  0  0  0  0
  139.7390  137.1230  150.6220 C   0  0  0  0  0  2  0  0  0  0  0  0
  140.2120  139.5720  150.9060 C   0  0  0  0  0  1  0  0  0  0  0  0
  140.7710  138.1660  151.0420 C   0  0  0  0  0  2  0  0  0  0  0  0
  134.7790  134.6040  154.8150 C   0  0  0  0  0  2  0  0  0  0  0  0
  135.6920  135.5350  155.5810 C   0  0  0  0  0  0  0  0  0  0  0  0
  136.5800  136.3700  154.8890 C   0  0  0  0  0  3  0  0  0  0  0  0
  137.4230  137.2420  155.5850 C   0  0  0  0  0  0  0  0  0  0  0  0
  138.7140  138.4650  154.4750 I   0  0  0  0  0  0  0  0  0  0  0  0
  137.4000  137.2950  156.9850 C   0  0  0  0  0  0  0  0  0  0  0  0
  136.5200  136.4690  157.6970 C   0  0  0  0  0  0  0  0  0  0  0  0
  135.6800  135.5930  156.9850 C   0  0  0  0  0  3  0  0  0  0  0  0
  138.2480  138.1480  157.6420 O   0  0  0  0  0  0  0  0  0  0  0  0
  137.9880  138.5330  158.4560 H   0  0  0  0  0  0  0  0  0  0  0  0
  136.3510  136.3890  159.0560 O   0  0  0  0  0  0  0  0  0  0  0  0
  136.2210  135.0970  159.6360 C   0  0  0  0  0  1  0  0  0  0  0  0
  1  2  2  0  0  0  0
  1  3  1  0  0  0  0
  3 13  1  0  0  0  0
  4  3  1  0  0  0  0
  5  1  1  0  0  0  0
  6  7  1  0  0  0  0
  6  5  1  0  0  0  0
  7  8  1  0  0  0  0
  9 10  1  0  0  0  0
  9  8  1  0  0  0  0
 10 12  1  0  0  0  0
 11 12  1  0  0  0  0
 13 14  1  0  0  0  0
 14 20  1  0  0  0  0
 15 14  2  0  0  0  0
 15 16  1  0  0  0  0
 16 18  2  0  0  0  0
 17 16  1  0  0  0  0
 18 21  1  0  0  0  0
 18 19  1  0  0  0  0
 19 23  1  0  0  0  0
 20 19  2  0  0  0  0
 21 22  1  0  0  0  0
 23 24  1  0  0  0  0
M  END
>  <MODEL>
8

>  <REMARK>
 VINA RESULT:    -5.313      5.798      8.927
 INTER + INTRA:         -10.214
 INTER:                  -8.932
 INTRA:                  -1.282
 UNBOUND:                -1.639
  Name = CHEMBL365972
  13 active torsions:
  status: ('A' for Active; 'I' for Inactive)
    1  A    between atoms: C_1  and  C_2
    2  A    between atoms: C_2  and  C_3
    3  A    between atoms: C_3  and  C_4
    4  A    between atoms: C_4  and  C_5
    5  A    between atoms: C_5  and  C_6
    6  A    between atoms: C_6  and  C_7
    7  A    between atoms: C_7  and  C_8
    8  A    between atoms: C_8  and  C_9
    9  A    between atoms: N_11  and  C_12
   10  A    between atoms: C_12  and  C_13
   11  A    between atoms: C_17  and  O_18
   12  A    between atoms: C_19  and  O_20
   13  A    between atoms: O_20  and  C_21
                            x       y       z     vdW  Elec       q    Type
                         _______ _______ _______ _____ _____    ______ ____

>  <TORSDO>
F 11

>  <SCORE>
-5.313

>  <RMSD_LB>
5.798

>  <RMSD_UB>
8.927

$$$$
CHEMBL365972
 OpenBabel10172500183D

 24 24  0  0  0  0  0  0  0  0999 V2000
  146.0530  140.5810  152.9160 C   0  0  0  0  0  0  0  0  0  0  0  0
  146.8390  139.6980  152.5740 O   0  0  0  0  0  0  0  0  0  0  0  0
  144.9010  140.3150  153.6220 N   0  0  0  0  0  0  0  0  0  0  0  0
  144.3210  141.0600  153.9020 H   0  0  0  0  0  0  0  0  0  0  0  0
  146.2910  142.0510  152.6400 C   0  0  0  0  0  2  0  0  0  0  0  0
  145.5350  142.4810  151.3840 C   0  0  0  0  0  2  0  0  0  0  0  0
  146.4650  142.6840  150.1900 C   0  0  0  0  0  2  0  0  0  0  0  0
  146.7430  141.3500  149.4960 C   0  0  0  0  0  2  0  0  0  0  0  0
  146.2960  141.3830  148.0380 C   0  0  0  0  0  2  0  0  0  0  0  0
  145.3730  140.2070  147.7230 C   0  0  0  0  0  2  0  0  0  0  0  0
  143.3290  140.0270  149.1670 C   0  0  0  0  0  1  0  0  0  0  0  0
  144.7820  139.6170  149.0000 C   0  0  0  0  0  2  0  0  0  0  0  0
  144.5300  138.9580  153.9580 C   0  0  0  0  0  2  0  0  0  0  0  0
  143.5150  138.3700  153.0040 C   0  0  0  0  0  0  0  0  0  0  0  0
  143.9390  137.5540  151.9460 C   0  0  0  0  0  3  0  0  0  0  0  0
  143.0110  136.9970  151.0620 C   0  0  0  0  0  0  0  0  0  0  0  0
  143.7260  135.7800  149.5130 I   0  0  0  0  0  0  0  0  0  0  0  0
  141.6400  137.2470  151.2130 C   0  0  0  0  0  0  0  0  0  0  0  0
  141.1940  138.0600  152.2630 C   0  0  0  0  0  0  0  0  0  0  0  0
  142.1400  138.6180  153.1440 C   0  0  0  0  0  3  0  0  0  0  0  0
  140.7520  136.7010  150.3230 O   0  0  0  0  0  0  0  0  0  0  0  0
  140.2010  135.9900  150.5870 H   0  0  0  0  0  0  0  0  0  0  0  0
  139.9020  138.4070  152.5720 O   0  0  0  0  0  0  0  0  0  0  0  0
  139.4530  138.1830  153.9030 C   0  0  0  0  0  1  0  0  0  0  0  0
  1  3  1  0  0  0  0
  2  1  2  0  0  0  0
  3  4  1  0  0  0  0
  3 13  1  0  0  0  0
  5  1  1  0  0  0  0
  6  5  1  0  0  0  0
  7  6  1  0  0  0  0
  8  7  1  0  0  0  0
  9  8  1  0  0  0  0
 10  9  1  0  0  0  0
 10 12  1  0  0  0  0
 12 11  1  0  0  0  0
 14 20  1  0  0  0  0
 14 13  1  0  0  0  0
 15 14  2  0  0  0  0
 16 18  2  0  0  0  0
 16 15  1  0  0  0  0
 17 16  1  0  0  0  0
 18 19  1  0  0  0  0
 19 23  1  0  0  0  0
 19 20  2  0  0  0  0
 21 22  1  0  0  0  0
 21 18  1  0  0  0  0
 23 24  1  0  0  0  0
M  END
>  <MODEL>
9

>  <REMARK>
 VINA RESULT:    -5.250      2.080      3.272
 INTER + INTRA:         -10.111
 INTER:                  -8.472
 INTRA:                  -1.639
 UNBOUND:                -1.639
  Name = CHEMBL365972
  13 active torsions:
  status: ('A' for Active; 'I' for Inactive)
    1  A    between atoms: C_1  and  C_2
    2  A    between atoms: C_2  and  C_3
    3  A    between atoms: C_3  and  C_4
    4  A    between atoms: C_4  and  C_5
    5  A    between atoms: C_5  and  C_6
    6  A    between atoms: C_6  and  C_7
    7  A    between atoms: C_7  and  C_8
    8  A    between atoms: C_8  and  C_9
    9  A    between atoms: N_11  and  C_12
   10  A    between atoms: C_12  and  C_13
   11  A    between atoms: C_17  and  O_18
   12  A    between atoms: C_19  and  O_20
   13  A    between atoms: O_20  and  C_21
                            x       y       z     vdW  Elec       q    Type
                         _______ _______ _______ _____ _____    ______ ____

>  <TORSDO>
F 11

>  <SCORE>
-5.250

>  <RMSD_LB>
2.080

>  <RMSD_UB>
3.272

$$$$
