CHEMBL5286385
 OpenBabel10172500283D

 33 33  0  0  0  0  0  0  0  0999 V2000
  145.5390  138.1720  154.2600 C   0  0  0  0  0  0  0  0  0  0  0  0
  145.7790  137.2800  153.2120 C   0  0  0  0  0  3  0  0  0  0  0  0
  144.7670  136.9330  152.3140 C   0  0  0  0  0  3  0  0  0  0  0  0
  143.4690  137.4380  152.4660 C   0  0  0  0  0  0  0  0  0  0  0  0
  143.2110  138.3150  153.5380 C   0  0  0  0  0  0  0  0  0  0  0  0
  144.2470  138.6880  154.4080 C   0  0  0  0  0  3  0  0  0  0  0  0
  142.0120  138.9210  153.8250 O   0  0  0  0  0  0  0  0  0  0  0  0
  141.8260  139.3250  155.1760 C   0  0  0  0  0  1  0  0  0  0  0  0
  146.6450  138.5380  155.2100 C   0  0  0  0  0  2  0  0  0  0  0  0
  148.3210  140.0750  154.2750 C   0  0  0  0  0  0  0  0  0  0  0  0
  149.0300  139.1610  153.8640 O   0  0  0  0  0  0  0  0  0  0  0  0
  147.1480  139.8700  154.9640 N   0  0  0  0  0  0  0  0  0  0  0  0
  146.6410  140.6460  155.2950 H   0  0  0  0  0  0  0  0  0  0  0  0
  148.6620  141.5410  154.0770 C   0  0  0  0  0  2  0  0  0  0  0  0
  147.6860  142.1840  153.0920 C   0  0  0  0  0  2  0  0  0  0  0  0
  148.1680  142.0860  151.6470 C   0  0  0  0  0  2  0  0  0  0  0  0
  146.9820  142.1700  150.6820 C   0  0  0  0  0  2  0  0  0  0  0  0
  145.6540  142.2880  151.4290 C   0  0  0  0  0  2  0  0  0  0  0  0
  144.8130  141.0230  151.2510 C   0  0  0  0  0  2  0  0  0  0  0  0
  144.6160  140.1220  148.9090 C   0  0  0  0  0  1  0  0  0  0  0  0
  145.4190  140.0950  150.2000 C   0  0  0  0  0  2  0  0  0  0  0  0
  142.4340  137.1490  151.6230 O   0  0  0  0  0  0  0  0  0  0  0  0
  142.2020  137.9520  150.4650 C   0  0  0  0  0  2  0  0  0  0  0  0
  140.6850  138.0350  150.2700 C   0  0  0  0  0  2  0  0  0  0  0  0
  139.9820  138.3940  151.4860 N   0  0  0  0  0  0  0  0  0  0  0  0
  139.4490  139.6050  151.7530 C   0  0  0  0  0  0  0  0  0  0  0  0
  139.2850  140.5960  150.9560 N   0  0  0  0  0  4  0  0  0  0  0  0
  139.0410  139.7100  153.0290 N   0  0  0  0  0  0  0  0  0  0  0  0
  139.8850  137.6970  152.1750 H   0  0  0  0  0  0  0  0  0  0  0  0
  139.5800  140.5290  150.0200 H   0  0  0  0  0  0  0  0  0  0  0  0
  138.8630  141.4240  151.2810 H   0  0  0  0  0  0  0  0  0  0  0  0
  139.1620  138.9560  153.6490 H   0  0  0  0  0  0  0  0  0  0  0  0
  138.6200  140.5440  153.3430 H   0  0  0  0  0  0  0  0  0  0  0  0
  1  6  1  0  0  0  0
  1  9  1  0  0  0  0
  2  1  2  0  0  0  0
  3  4  2  0  0  0  0
  3  2  1  0  0  0  0
  4  5  1  0  0  0  0
  5  7  1  0  0  0  0
  5  6  2  0  0  0  0
  7  8  1  0  0  0  0
 10 12  1  0  0  0  0
 11 10  2  0  0  0  0
 12  9  1  0  0  0  0
 12 13  1  0  0  0  0
 14 10  1  0  0  0  0
 15 14  1  0  0  0  0
 16 15  1  0  0  0  0
 17 18  1  0  0  0  0
 17 16  1  0  0  0  0
 19 18  1  0  0  0  0
 20 21  1  0  0  0  0
 21 19  1  0  0  0  0
 22  4  1  0  0  0  0
 23 22  1  0  0  0  0
 24 23  1  0  0  0  0
 24 25  1  0  0  0  0
 25 26  1  0  0  0  0
 25 29  1  0  0  0  0
 26 28  1  0  0  0  0
 27 31  1  0  0  0  0
 27 26  2  0  0  0  0
 28 33  1  0  0  0  0
 28 32  1  0  0  0  0
 30 27  1  0  0  0  0
M  END
>  <MODEL>
1

>  <REMARK>
 VINA RESULT:    -6.616      0.000      0.000
 INTER + INTRA:         -13.995
 INTER:                 -11.453
 INTRA:                  -2.542
 UNBOUND:                -1.964
  Name = CHEMBL5286385
  16 active torsions:
  status: ('A' for Active; 'I' for Inactive)
    1  A    between atoms: C_1  and  C_2
    2  A    between atoms: C_2  and  C_3
    3  A    between atoms: C_3  and  C_4
    4  A    between atoms: C_4  and  C_5
    5  A    between atoms: C_5  and  C_6
    6  A    between atoms: C_6  and  C_7
    7  A    between atoms: C_7  and  C_8
    8  A    between atoms: C_8  and  C_9
    9  A    between atoms: N_11  and  C_12
   10  A    between atoms: C_12  and  C_13
   11  A    between atoms: C_16  and  O_17
   12  A    between atoms: O_17  and  C_18
   13  A    between atoms: C_18  and  C_19
   14  A    between atoms: C_19  and  N_20
   15  A    between atoms: C_24  and  O_25
   16  A    between atoms: O_25  and  C_26
                            x       y       z     vdW  Elec       q    Type
                         _______ _______ _______ _____ _____    ______ ____

>  <TORSDO>
F 14

>  <SCORE>
-6.616

>  <RMSD_LB>
0.000

>  <RMSD_UB>
0.000

$$$$
CHEMBL5286385
 OpenBabel10172500283D

 33 33  0  0  0  0  0  0  0  0999 V2000
  140.7490  138.6110  153.6940 C   0  0  0  0  0  0  0  0  0  0  0  0
  141.1640  137.7940  152.6400 C   0  0  0  0  0  3  0  0  0  0  0  0
  142.5210  137.5630  152.3990 C   0  0  0  0  0  3  0  0  0  0  0  0
  143.5040  138.1780  153.1830 C   0  0  0  0  0  0  0  0  0  0  0  0
  143.0940  139.0280  154.2290 C   0  0  0  0  0  0  0  0  0  0  0  0
  141.7280  139.2190  154.4870 C   0  0  0  0  0  3  0  0  0  0  0  0
  143.9140  139.6930  155.1080 O   0  0  0  0  0  0  0  0  0  0  0  0
  143.3000  140.1560  156.3040 C   0  0  0  0  0  1  0  0  0  0  0  0
  139.2840  138.8410  153.9400 C   0  0  0  0  0  2  0  0  0  0  0  0
  137.5730  138.1450  155.5640 C   0  0  0  0  0  0  0  0  0  0  0  0
  136.9450  139.1940  155.4550 O   0  0  0  0  0  0  0  0  0  0  0  0
  138.7410  137.8900  154.8820 N   0  0  0  0  0  0  0  0  0  0  0  0
  139.2150  137.0410  155.0380 H   0  0  0  0  0  0  0  0  0  0  0  0
  137.1390  137.0100  156.4730 C   0  0  0  0  0  2  0  0  0  0  0  0
  136.9490  135.7270  155.6660 C   0  0  0  0  0  2  0  0  0  0  0  0
  135.6460  135.7270  154.8700 C   0  0  0  0  0  2  0  0  0  0  0  0
  135.9090  135.3310  153.4150 C   0  0  0  0  0  2  0  0  0  0  0  0
  134.9480  134.2400  152.9440 C   0  0  0  0  0  2  0  0  0  0  0  0
  134.5330  134.4680  151.4900 C   0  0  0  0  0  2  0  0  0  0  0  0
  132.6750  133.7150  149.9670 C   0  0  0  0  0  1  0  0  0  0  0  0
  133.7580  133.2730  150.9390 C   0  0  0  0  0  2  0  0  0  0  0  0
  144.8460  137.9920  153.0100 O   0  0  0  0  0  0  0  0  0  0  0  0
  145.5020  138.5110  151.8510 C   0  0  0  0  0  2  0  0  0  0  0  0
  146.6280  139.4260  152.3430 C   0  0  0  0  0  2  0  0  0  0  0  0
  146.1350  140.6510  152.9400 N   0  0  0  0  0  0  0  0  0  0  0  0
  146.6400  141.2400  154.0450 C   0  0  0  0  0  0  0  0  0  0  0  0
  147.7290  140.9680  154.6660 N   0  0  0  0  0  0  0  0  0  0  0  0
  145.8640  142.2440  154.4860 N   0  0  0  0  0  4  0  0  0  0  0  0
  145.3700  141.0900  152.5050 H   0  0  0  0  0  0  0  0  0  0  0  0
  148.3050  140.2350  154.3510 H   0  0  0  0  0  0  0  0  0  0  0  0
  147.9880  141.4930  155.4580 H   0  0  0  0  0  0  0  0  0  0  0  0
  145.0260  142.4620  154.0170 H   0  0  0  0  0  0  0  0  0  0  0  0
  146.1330  142.7630  155.2790 H   0  0  0  0  0  0  0  0  0  0  0  0
  1  9  1  0  0  0  0
  1  6  1  0  0  0  0
  2  1  2  0  0  0  0
  3  2  1  0  0  0  0
  3  4  2  0  0  0  0
  4  5  1  0  0  0  0
  5  6  2  0  0  0  0
  5  7  1  0  0  0  0
  7  8  1  0  0  0  0
  9 12  1  0  0  0  0
 10 14  1  0  0  0  0
 11 10  2  0  0  0  0
 12 13  1  0  0  0  0
 12 10  1  0  0  0  0
 15 14  1  0  0  0  0
 16 15  1  0  0  0  0
 17 16  1  0  0  0  0
 18 17  1  0  0  0  0
 19 18  1  0  0  0  0
 20 21  1  0  0  0  0
 21 19  1  0  0  0  0
 22  4  1  0  0  0  0
 23 24  1  0  0  0  0
 23 22  1  0  0  0  0
 24 25  1  0  0  0  0
 25 26  1  0  0  0  0
 26 28  2  0  0  0  0
 26 27  1  0  0  0  0
 27 31  1  0  0  0  0
 28 33  1  0  0  0  0
 29 25  1  0  0  0  0
 30 27  1  0  0  0  0
 32 28  1  0  0  0  0
M  END
>  <MODEL>
2

>  <REMARK>
 VINA RESULT:    -6.505      4.351      8.992
 INTER + INTRA:         -13.793
 INTER:                 -12.465
 INTRA:                  -1.328
 UNBOUND:                -1.964
  Name = CHEMBL5286385
  16 active torsions:
  status: ('A' for Active; 'I' for Inactive)
    1  A    between atoms: C_1  and  C_2
    2  A    between atoms: C_2  and  C_3
    3  A    between atoms: C_3  and  C_4
    4  A    between atoms: C_4  and  C_5
    5  A    between atoms: C_5  and  C_6
    6  A    between atoms: C_6  and  C_7
    7  A    between atoms: C_7  and  C_8
    8  A    between atoms: C_8  and  C_9
    9  A    between atoms: N_11  and  C_12
   10  A    between atoms: C_12  and  C_13
   11  A    between atoms: C_16  and  O_17
   12  A    between atoms: O_17  and  C_18
   13  A    between atoms: C_18  and  C_19
   14  A    between atoms: C_19  and  N_20
   15  A    between atoms: C_24  and  O_25
   16  A    between atoms: O_25  and  C_26
                            x       y       z     vdW  Elec       q    Type
                         _______ _______ _______ _____ _____    ______ ____

>  <TORSDO>
F 14

>  <SCORE>
-6.505

>  <RMSD_LB>
4.351

>  <RMSD_UB>
8.992

$$$$
CHEMBL5286385
 OpenBabel10172500283D

 33 33  0  0  0  0  0  0  0  0999 V2000
  134.7380  134.2040  151.4990 C   0  0  0  0  0  0  0  0  0  0  0  0
  134.2920  134.0570  152.8150 C   0  0  0  0  0  3  0  0  0  0  0  0
  134.7180  134.9280  153.8210 C   0  0  0  0  0  3  0  0  0  0  0  0
  135.6390  135.9470  153.5470 C   0  0  0  0  0  0  0  0  0  0  0  0
  136.1160  136.0830  152.2280 C   0  0  0  0  0  0  0  0  0  0  0  0
  135.6490  135.2290  151.2180 C   0  0  0  0  0  3  0  0  0  0  0  0
  136.9990  137.0330  151.7750 O   0  0  0  0  0  0  0  0  0  0  0  0
  137.1570  137.1130  150.3640 C   0  0  0  0  0  1  0  0  0  0  0  0
  134.2620  133.2610  150.4300 C   0  0  0  0  0  2  0  0  0  0  0  0
  134.8320  132.6410  148.1190 C   0  0  0  0  0  0  0  0  0  0  0  0
  134.3410  131.5210  148.2270 O   0  0  0  0  0  0  0  0  0  0  0  0
  134.8610  133.5540  149.1480 N   0  0  0  0  0  0  0  0  0  0  0  0
  135.2990  134.4240  149.0080 H   0  0  0  0  0  0  0  0  0  0  0  0
  135.4730  133.1450  146.8390 C   0  0  0  0  0  2  0  0  0  0  0  0
  135.0720  134.5980  146.5830 C   0  0  0  0  0  2  0  0  0  0  0  0
  134.5600  134.8180  145.1610 C   0  0  0  0  0  2  0  0  0  0  0  0
  134.5870  136.3080  144.8100 C   0  0  0  0  0  2  0  0  0  0  0  0
  133.1960  136.9330  144.8900 C   0  0  0  0  0  2  0  0  0  0  0  0
  133.0310  137.7360  146.1810 C   0  0  0  0  0  2  0  0  0  0  0  0
  132.9970  136.9400  148.5690 C   0  0  0  0  0  1  0  0  0  0  0  0
  132.2640  136.9410  147.2360 C   0  0  0  0  0  2  0  0  0  0  0  0
  136.0920  136.8370  154.4780 O   0  0  0  0  0  0  0  0  0  0  0  0
  137.2590  136.5420  155.2480 C   0  0  0  0  0  2  0  0  0  0  0  0
  138.0730  137.8360  155.3460 C   0  0  0  0  0  2  0  0  0  0  0  0
  138.2080  138.5120  154.0700 N   0  0  0  0  0  0  0  0  0  0  0  0
  139.2560  139.2780  153.6980 C   0  0  0  0  0  0  0  0  0  0  0  0
  140.3900  139.4130  154.2810 N   0  0  0  0  0  0  0  0  0  0  0  0
  139.0210  139.9380  152.5520 N   0  0  0  0  0  4  0  0  0  0  0  0
  137.4760  138.4030  153.4210 H   0  0  0  0  0  0  0  0  0  0  0  0
  140.5730  138.9330  155.1210 H   0  0  0  0  0  0  0  0  0  0  0  0
  141.0790  139.9980  153.8890 H   0  0  0  0  0  0  0  0  0  0  0  0
  138.1540  139.8420  152.0960 H   0  0  0  0  0  0  0  0  0  0  0  0
  139.7170  140.5210  152.1690 H   0  0  0  0  0  0  0  0  0  0  0  0
  1  2  1  0  0  0  0
  2  3  2  0  0  0  0
  4  3  1  0  0  0  0
  4 22  1  0  0  0  0
  5  4  2  0  0  0  0
  6  1  2  0  0  0  0
  6  5  1  0  0  0  0
  7  5  1  0  0  0  0
  8  7  1  0  0  0  0
  9  1  1  0  0  0  0
 10 11  2  0  0  0  0
 10 12  1  0  0  0  0
 12  9  1  0  0  0  0
 13 12  1  0  0  0  0
 14 10  1  0  0  0  0
 15 14  1  0  0  0  0
 16 15  1  0  0  0  0
 17 18  1  0  0  0  0
 17 16  1  0  0  0  0
 18 19  1  0  0  0  0
 19 21  1  0  0  0  0
 21 20  1  0  0  0  0
 22 23  1  0  0  0  0
 23 24  1  0  0  0  0
 25 24  1  0  0  0  0
 26 25  1  0  0  0  0
 26 27  1  0  0  0  0
 27 30  1  0  0  0  0
 28 26  2  0  0  0  0
 29 25  1  0  0  0  0
 31 27  1  0  0  0  0
 32 28  1  0  0  0  0
 33 28  1  0  0  0  0
M  END
>  <MODEL>
3

>  <REMARK>
 VINA RESULT:    -6.375      6.784     11.636
 INTER + INTRA:         -13.557
 INTER:                 -11.716
 INTRA:                  -1.842
 UNBOUND:                -1.964
  Name = CHEMBL5286385
  16 active torsions:
  status: ('A' for Active; 'I' for Inactive)
    1  A    between atoms: C_1  and  C_2
    2  A    between atoms: C_2  and  C_3
    3  A    between atoms: C_3  and  C_4
    4  A    between atoms: C_4  and  C_5
    5  A    between atoms: C_5  and  C_6
    6  A    between atoms: C_6  and  C_7
    7  A    between atoms: C_7  and  C_8
    8  A    between atoms: C_8  and  C_9
    9  A    between atoms: N_11  and  C_12
   10  A    between atoms: C_12  and  C_13
   11  A    between atoms: C_16  and  O_17
   12  A    between atoms: O_17  and  C_18
   13  A    between atoms: C_18  and  C_19
   14  A    between atoms: C_19  and  N_20
   15  A    between atoms: C_24  and  O_25
   16  A    between atoms: O_25  and  C_26
                            x       y       z     vdW  Elec       q    Type
                         _______ _______ _______ _____ _____    ______ ____

>  <TORSDO>
F 14

>  <SCORE>
-6.375

>  <RMSD_LB>
6.784

>  <RMSD_UB>
11.636

$$$$
CHEMBL5286385
 OpenBabel10172500283D

 33 33  0  0  0  0  0  0  0  0999 V2000
  139.0040  137.7670  151.7450 C   0  0  0  0  0  0  0  0  0  0  0  0
  140.2340  137.4310  151.1740 C   0  0  0  0  0  3  0  0  0  0  0  0
  141.4170  137.5100  151.9130 C   0  0  0  0  0  3  0  0  0  0  0  0
  141.4090  137.9700  153.2350 C   0  0  0  0  0  0  0  0  0  0  0  0
  140.1760  138.3400  153.8090 C   0  0  0  0  0  0  0  0  0  0  0  0
  138.9890  138.2160  153.0700 C   0  0  0  0  0  3  0  0  0  0  0  0
  139.9760  138.7880  155.0920 O   0  0  0  0  0  0  0  0  0  0  0  0
  139.5530  137.8100  156.0340 C   0  0  0  0  0  1  0  0  0  0  0  0
  137.7420  137.6680  150.9350 C   0  0  0  0  0  2  0  0  0  0  0  0
  136.2400  135.8160  151.5390 C   0  0  0  0  0  0  0  0  0  0  0  0
  135.6410  136.4850  152.3770 O   0  0  0  0  0  0  0  0  0  0  0  0
  137.2950  136.3000  150.8010 N   0  0  0  0  0  0  0  0  0  0  0  0
  137.7540  135.7030  150.1670 H   0  0  0  0  0  0  0  0  0  0  0  0
  135.8900  134.3730  151.2270 C   0  0  0  0  0  2  0  0  0  0  0  0
  134.7070  133.9170  152.0800 C   0  0  0  0  0  2  0  0  0  0  0  0
  133.4710  133.6010  151.2400 C   0  0  0  0  0  2  0  0  0  0  0  0
  133.8720  133.3040  149.7920 C   0  0  0  0  0  2  0  0  0  0  0  0
  132.8270  133.8140  148.8010 C   0  0  0  0  0  2  0  0  0  0  0  0
  133.4400  134.8290  147.8350 C   0  0  0  0  0  2  0  0  0  0  0  0
  132.7630  136.9010  149.0950 C   0  0  0  0  0  1  0  0  0  0  0  0
  133.9280  136.0750  148.5720 C   0  0  0  0  0  2  0  0  0  0  0  0
  142.5240  138.0660  154.0180 O   0  0  0  0  0  0  0  0  0  0  0  0
  143.2100  139.3120  154.1430 C   0  0  0  0  0  2  0  0  0  0  0  0
  144.3500  139.3050  153.1190 C   0  0  0  0  0  2  0  0  0  0  0  0
  144.8250  140.6360  152.8000 N   0  0  0  0  0  0  0  0  0  0  0  0
  144.8700  141.1750  151.5630 C   0  0  0  0  0  0  0  0  0  0  0  0
  144.3500  140.7260  150.4790 N   0  0  0  0  0  4  0  0  0  0  0  0
  145.5410  142.3380  151.5380 N   0  0  0  0  0  0  0  0  0  0  0  0
  145.1420  141.1940  153.5460 H   0  0  0  0  0  0  0  0  0  0  0  0
  143.8550  139.8750  150.4870 H   0  0  0  0  0  0  0  0  0  0  0  0
  144.4450  141.2330  149.6410 H   0  0  0  0  0  0  0  0  0  0  0  0
  145.9440  142.6920  152.3630 H   0  0  0  0  0  0  0  0  0  0  0  0
  145.6310  142.8370  150.6930 H   0  0  0  0  0  0  0  0  0  0  0  0
  1  6  1  0  0  0  0
  2  1  2  0  0  0  0
  2  3  1  0  0  0  0
  3  4  2  0  0  0  0
  4  5  1  0  0  0  0
  4 22  1  0  0  0  0
  5  7  1  0  0  0  0
  6  5  2  0  0  0  0
  7  8  1  0  0  0  0
  9  1  1  0  0  0  0
 10 11  2  0  0  0  0
 12  9  1  0  0  0  0
 12 10  1  0  0  0  0
 13 12  1  0  0  0  0
 14 10  1  0  0  0  0
 14 15  1  0  0  0  0
 16 15  1  0  0  0  0
 17 16  1  0  0  0  0
 18 17  1  0  0  0  0
 19 21  1  0  0  0  0
 19 18  1  0  0  0  0
 21 20  1  0  0  0  0
 22 23  1  0  0  0  0
 24 23  1  0  0  0  0
 25 24  1  0  0  0  0
 25 29  1  0  0  0  0
 26 25  1  0  0  0  0
 27 30  1  0  0  0  0
 27 26  2  0  0  0  0
 28 26  1  0  0  0  0
 28 32  1  0  0  0  0
 31 27  1  0  0  0  0
 33 28  1  0  0  0  0
M  END
>  <MODEL>
4

>  <REMARK>
 VINA RESULT:    -6.246      5.027      9.906
 INTER + INTRA:         -13.323
 INTER:                 -11.930
 INTRA:                  -1.393
 UNBOUND:                -1.964
  Name = CHEMBL5286385
  16 active torsions:
  status: ('A' for Active; 'I' for Inactive)
    1  A    between atoms: C_1  and  C_2
    2  A    between atoms: C_2  and  C_3
    3  A    between atoms: C_3  and  C_4
    4  A    between atoms: C_4  and  C_5
    5  A    between atoms: C_5  and  C_6
    6  A    between atoms: C_6  and  C_7
    7  A    between atoms: C_7  and  C_8
    8  A    between atoms: C_8  and  C_9
    9  A    between atoms: N_11  and  C_12
   10  A    between atoms: C_12  and  C_13
   11  A    between atoms: C_16  and  O_17
   12  A    between atoms: O_17  and  C_18
   13  A    between atoms: C_18  and  C_19
   14  A    between atoms: C_19  and  N_20
   15  A    between atoms: C_24  and  O_25
   16  A    between atoms: O_25  and  C_26
                            x       y       z     vdW  Elec       q    Type
                         _______ _______ _______ _____ _____    ______ ____

>  <TORSDO>
F 14

>  <SCORE>
-6.246

>  <RMSD_LB>
5.027

>  <RMSD_UB>
9.906

$$$$
CHEMBL5286385
 OpenBabel10172500283D

 33 33  0  0  0  0  0  0  0  0999 V2000
  138.2660  137.4930  155.6240 C   0  0  0  0  0  0  0  0  0  0  0  0
  139.5560  137.7900  156.0690 C   0  0  0  0  0  3  0  0  0  0  0  0
  140.5580  138.1700  155.1730 C   0  0  0  0  0  3  0  0  0  0  0  0
  140.3080  138.2230  153.7960 C   0  0  0  0  0  0  0  0  0  0  0  0
  139.0170  137.8950  153.3360 C   0  0  0  0  0  0  0  0  0  0  0  0
  138.0080  137.5560  154.2500 C   0  0  0  0  0  3  0  0  0  0  0  0
  138.5870  137.9150  152.0310 O   0  0  0  0  0  0  0  0  0  0  0  0
  137.4210  137.1520  151.7480 C   0  0  0  0  0  1  0  0  0  0  0  0
  137.2000  137.0940  156.6060 C   0  0  0  0  0  2  0  0  0  0  0  0
  135.4810  135.3390  156.7210 C   0  0  0  0  0  0  0  0  0  0  0  0
  135.6890  135.1180  157.9110 O   0  0  0  0  0  0  0  0  0  0  0  0
  136.1840  136.2700  155.9920 N   0  0  0  0  0  0  0  0  0  0  0  0
  135.9910  136.3770  155.0330 H   0  0  0  0  0  0  0  0  0  0  0  0
  134.4260  134.6040  155.9140 C   0  0  0  0  0  2  0  0  0  0  0  0
  134.4410  135.0820  154.4630 C   0  0  0  0  0  2  0  0  0  0  0  0
  134.5300  133.9260  153.4700 C   0  0  0  0  0  2  0  0  0  0  0  0
  135.7630  134.0830  152.5770 C   0  0  0  0  0  2  0  0  0  0  0  0
  135.3990  134.0220  151.0940 C   0  0  0  0  0  2  0  0  0  0  0  0
  133.8860  133.8940  150.9080 C   0  0  0  0  0  2  0  0  0  0  0  0
  132.6550  136.0670  150.5910 C   0  0  0  0  0  1  0  0  0  0  0  0
  133.3620  134.9130  149.8980 C   0  0  0  0  0  2  0  0  0  0  0  0
  141.2350  138.5920  152.8650 O   0  0  0  0  0  0  0  0  0  0  0  0
  142.4730  137.8860  152.7620 C   0  0  0  0  0  2  0  0  0  0  0  0
  143.5950  138.9210  152.8960 C   0  0  0  0  0  2  0  0  0  0  0  0
  143.3980  139.8190  154.0160 N   0  0  0  0  0  0  0  0  0  0  0  0
  144.0980  139.7940  155.1710 C   0  0  0  0  0  0  0  0  0  0  0  0
  145.1630  139.1320  155.4430 N   0  0  0  0  0  4  0  0  0  0  0  0
  143.5680  140.6030  156.1040 N   0  0  0  0  0  0  0  0  0  0  0  0
  142.6970  140.5040  153.9290 H   0  0  0  0  0  0  0  0  0  0  0  0
  145.5590  138.5380  154.7660 H   0  0  0  0  0  0  0  0  0  0  0  0
  145.5830  139.2200  156.3280 H   0  0  0  0  0  0  0  0  0  0  0  0
  142.7520  141.1150  155.9060 H   0  0  0  0  0  0  0  0  0  0  0  0
  143.9980  140.6820  156.9870 H   0  0  0  0  0  0  0  0  0  0  0  0
  1  2  1  0  0  0  0
  1  9  1  0  0  0  0
  3  2  2  0  0  0  0
  4  3  1  0  0  0  0
  5  4  2  0  0  0  0
  5  6  1  0  0  0  0
  6  1  2  0  0  0  0
  7  5  1  0  0  0  0
  8  7  1  0  0  0  0
 10 11  2  0  0  0  0
 12  9  1  0  0  0  0
 12 10  1  0  0  0  0
 13 12  1  0  0  0  0
 14 10  1  0  0  0  0
 15 14  1  0  0  0  0
 16 15  1  0  0  0  0
 17 16  1  0  0  0  0
 18 17  1  0  0  0  0
 19 18  1  0  0  0  0
 21 20  1  0  0  0  0
 21 19  1  0  0  0  0
 22  4  1  0  0  0  0
 23 22  1  0  0  0  0
 23 24  1  0  0  0  0
 24 25  1  0  0  0  0
 25 26  1  0  0  0  0
 26 27  2  0  0  0  0
 26 28  1  0  0  0  0
 27 31  1  0  0  0  0
 28 33  1  0  0  0  0
 29 25  1  0  0  0  0
 30 27  1  0  0  0  0
 32 28  1  0  0  0  0
M  END
>  <MODEL>
5

>  <REMARK>
 VINA RESULT:    -6.234      5.303      9.930
 INTER + INTRA:         -13.300
 INTER:                 -11.850
 INTRA:                  -1.450
 UNBOUND:                -1.964
  Name = CHEMBL5286385
  16 active torsions:
  status: ('A' for Active; 'I' for Inactive)
    1  A    between atoms: C_1  and  C_2
    2  A    between atoms: C_2  and  C_3
    3  A    between atoms: C_3  and  C_4
    4  A    between atoms: C_4  and  C_5
    5  A    between atoms: C_5  and  C_6
    6  A    between atoms: C_6  and  C_7
    7  A    between atoms: C_7  and  C_8
    8  A    between atoms: C_8  and  C_9
    9  A    between atoms: N_11  and  C_12
   10  A    between atoms: C_12  and  C_13
   11  A    between atoms: C_16  and  O_17
   12  A    between atoms: O_17  and  C_18
   13  A    between atoms: C_18  and  C_19
   14  A    between atoms: C_19  and  N_20
   15  A    between atoms: C_24  and  O_25
   16  A    between atoms: O_25  and  C_26
                            x       y       z     vdW  Elec       q    Type
                         _______ _______ _______ _____ _____    ______ ____

>  <TORSDO>
F 14

>  <SCORE>
-6.234

>  <RMSD_LB>
5.303

>  <RMSD_UB>
9.930

$$$$
CHEMBL5286385
 OpenBabel10172500283D

 33 33  0  0  0  0  0  0  0  0999 V2000
  137.5380  136.6590  155.6690 C   0  0  0  0  0  0  0  0  0  0  0  0
  138.5180  136.8810  156.6390 C   0  0  0  0  0  3  0  0  0  0  0  0
  139.5750  137.7640  156.4060 C   0  0  0  0  0  3  0  0  0  0  0  0
  139.7050  138.4200  155.1760 C   0  0  0  0  0  0  0  0  0  0  0  0
  138.7380  138.1780  154.1810 C   0  0  0  0  0  0  0  0  0  0  0  0
  137.6570  137.3210  154.4420 C   0  0  0  0  0  3  0  0  0  0  0  0
  138.6930  138.7480  152.9310 O   0  0  0  0  0  0  0  0  0  0  0  0
  139.2220  137.9630  151.8700 C   0  0  0  0  0  1  0  0  0  0  0  0
  136.4040  135.7110  155.9420 C   0  0  0  0  0  2  0  0  0  0  0  0
  134.6160  134.5040  154.7610 C   0  0  0  0  0  0  0  0  0  0  0  0
  134.1860  133.9940  155.7920 O   0  0  0  0  0  0  0  0  0  0  0  0
  135.7090  135.3390  154.7310 N   0  0  0  0  0  0  0  0  0  0  0  0
  136.0240  135.6910  153.8670 H   0  0  0  0  0  0  0  0  0  0  0  0
  133.9950  134.2650  153.3970 C   0  0  0  0  0  2  0  0  0  0  0  0
  135.0780  133.9270  152.3730 C   0  0  0  0  0  2  0  0  0  0  0  0
  134.6580  134.2710  150.9460 C   0  0  0  0  0  2  0  0  0  0  0  0
  134.0310  133.0520  150.2650 C   0  0  0  0  0  2  0  0  0  0  0  0
  133.7390  133.3170  148.7890 C   0  0  0  0  0  2  0  0  0  0  0  0
  132.8080  134.5190  148.6240 C   0  0  0  0  0  2  0  0  0  0  0  0
  132.3680  136.6150  147.3010 C   0  0  0  0  0  1  0  0  0  0  0  0
  133.3870  135.5400  147.6460 C   0  0  0  0  0  2  0  0  0  0  0  0
  140.7070  139.3000  154.8820 O   0  0  0  0  0  0  0  0  0  0  0  0
  142.0730  138.8870  154.9510 C   0  0  0  0  0  2  0  0  0  0  0  0
  142.8120  139.9160  155.8120 C   0  0  0  0  0  2  0  0  0  0  0  0
  144.2350  139.6530  155.9020 N   0  0  0  0  0  0  0  0  0  0  0  0
  145.1300  139.8500  154.9100 C   0  0  0  0  0  0  0  0  0  0  0  0
  144.9620  140.4610  153.7950 N   0  0  0  0  0  4  0  0  0  0  0  0
  146.3350  139.3330  155.2030 N   0  0  0  0  0  0  0  0  0  0  0  0
  144.5780  139.3030  156.7560 H   0  0  0  0  0  0  0  0  0  0  0  0
  144.0830  140.8440  153.5710 H   0  0  0  0  0  0  0  0  0  0  0  0
  145.7120  140.5470  153.1630 H   0  0  0  0  0  0  0  0  0  0  0  0
  146.4750  138.8620  156.0560 H   0  0  0  0  0  0  0  0  0  0  0  0
  147.0780  139.4250  154.5630 H   0  0  0  0  0  0  0  0  0  0  0  0
  1  9  1  0  0  0  0
  1  2  1  0  0  0  0
  3  2  2  0  0  0  0
  4  3  1  0  0  0  0
  5  6  1  0  0  0  0
  5  4  2  0  0  0  0
  6  1  2  0  0  0  0
  7  5  1  0  0  0  0
  8  7  1  0  0  0  0
 10 11  2  0  0  0  0
 12 10  1  0  0  0  0
 12  9  1  0  0  0  0
 13 12  1  0  0  0  0
 14 10  1  0  0  0  0
 15 14  1  0  0  0  0
 16 15  1  0  0  0  0
 17 16  1  0  0  0  0
 18 17  1  0  0  0  0
 19 18  1  0  0  0  0
 20 21  1  0  0  0  0
 21 19  1  0  0  0  0
 22 23  1  0  0  0  0
 22  4  1  0  0  0  0
 23 24  1  0  0  0  0
 24 25  1  0  0  0  0
 25 29  1  0  0  0  0
 26 28  1  0  0  0  0
 26 25  1  0  0  0  0
 27 26  2  0  0  0  0
 28 32  1  0  0  0  0
 30 27  1  0  0  0  0
 31 27  1  0  0  0  0
 33 28  1  0  0  0  0
M  END
>  <MODEL>
6

>  <REMARK>
 VINA RESULT:    -6.180      5.686     10.612
 INTER + INTRA:         -13.202
 INTER:                 -12.273
 INTRA:                  -0.929
 UNBOUND:                -1.964
  Name = CHEMBL5286385
  16 active torsions:
  status: ('A' for Active; 'I' for Inactive)
    1  A    between atoms: C_1  and  C_2
    2  A    between atoms: C_2  and  C_3
    3  A    between atoms: C_3  and  C_4
    4  A    between atoms: C_4  and  C_5
    5  A    between atoms: C_5  and  C_6
    6  A    between atoms: C_6  and  C_7
    7  A    between atoms: C_7  and  C_8
    8  A    between atoms: C_8  and  C_9
    9  A    between atoms: N_11  and  C_12
   10  A    between atoms: C_12  and  C_13
   11  A    between atoms: C_16  and  O_17
   12  A    between atoms: O_17  and  C_18
   13  A    between atoms: C_18  and  C_19
   14  A    between atoms: C_19  and  N_20
   15  A    between atoms: C_24  and  O_25
   16  A    between atoms: O_25  and  C_26
                            x       y       z     vdW  Elec       q    Type
                         _______ _______ _______ _____ _____    ______ ____

>  <TORSDO>
F 14

>  <SCORE>
-6.180

>  <RMSD_LB>
5.686

>  <RMSD_UB>
10.612

$$$$
CHEMBL5286385
 OpenBabel10172500283D

 33 33  0  0  0  0  0  0  0  0999 V2000
  139.7460  138.3120  154.6010 C   0  0  0  0  0  0  0  0  0  0  0  0
  139.1090  137.9360  153.4170 C   0  0  0  0  0  3  0  0  0  0  0  0
  137.8110  137.4190  153.4290 C   0  0  0  0  0  3  0  0  0  0  0  0
  137.1280  137.2230  154.6360 C   0  0  0  0  0  0  0  0  0  0  0  0
  137.7750  137.5710  155.8380 C   0  0  0  0  0  0  0  0  0  0  0  0
  139.0630  138.1280  155.8090 C   0  0  0  0  0  3  0  0  0  0  0  0
  137.2530  137.4700  157.1040 O   0  0  0  0  0  0  0  0  0  0  0  0
  138.1490  137.7490  158.1720 C   0  0  0  0  0  1  0  0  0  0  0  0
  141.1400  138.8730  154.5650 C   0  0  0  0  0  2  0  0  0  0  0  0
  142.9370  139.2400  152.9270 C   0  0  0  0  0  0  0  0  0  0  0  0
  143.8130  139.2500  153.7870 O   0  0  0  0  0  0  0  0  0  0  0  0
  141.6000  139.0860  153.2120 N   0  0  0  0  0  0  0  0  0  0  0  0
  140.9430  139.1190  152.4790 H   0  0  0  0  0  0  0  0  0  0  0  0
  143.2280  139.4080  151.4460 C   0  0  0  0  0  2  0  0  0  0  0  0
  144.5700  138.7670  151.0940 C   0  0  0  0  0  2  0  0  0  0  0  0
  145.1200  139.2660  149.7600 C   0  0  0  0  0  2  0  0  0  0  0  0
  146.6330  139.4800  149.8540 C   0  0  0  0  0  2  0  0  0  0  0  0
  146.9860  140.5890  150.8440 C   0  0  0  0  0  2  0  0  0  0  0  0
  146.3710  141.9220  150.4140 C   0  0  0  0  0  2  0  0  0  0  0  0
  146.1550  142.1400  152.9120 C   0  0  0  0  0  1  0  0  0  0  0  0
  145.6100  142.5800  151.5630 C   0  0  0  0  0  2  0  0  0  0  0  0
  135.8570  136.7300  154.7230 O   0  0  0  0  0  0  0  0  0  0  0  0
  135.5140  135.5050  154.0730 C   0  0  0  0  0  2  0  0  0  0  0  0
  133.9850  135.4500  153.9930 C   0  0  0  0  0  2  0  0  0  0  0  0
  133.5100  134.5920  152.9260 N   0  0  0  0  0  0  0  0  0  0  0  0
  133.1660  135.0020  151.6870 C   0  0  0  0  0  0  0  0  0  0  0  0
  133.3560  136.1500  151.1470 N   0  0  0  0  0  0  0  0  0  0  0  0
  132.5720  134.0300  150.9760 N   0  0  0  0  0  4  0  0  0  0  0  0
  133.4320  133.6300  153.1200 H   0  0  0  0  0  0  0  0  0  0  0  0
  133.7910  136.8690  151.6590 H   0  0  0  0  0  0  0  0  0  0  0  0
  133.0660  136.3120  150.2200 H   0  0  0  0  0  0  0  0  0  0  0  0
  132.4210  133.1450  151.3800 H   0  0  0  0  0  0  0  0  0  0  0  0
  132.2860  134.2020  150.0490 H   0  0  0  0  0  0  0  0  0  0  0  0
  1  6  1  0  0  0  0
  2  3  1  0  0  0  0
  2  1  2  0  0  0  0
  3  4  2  0  0  0  0
  4 22  1  0  0  0  0
  4  5  1  0  0  0  0
  5  7  1  0  0  0  0
  6  5  2  0  0  0  0
  7  8  1  0  0  0  0
  9  1  1  0  0  0  0
 10 12  1  0  0  0  0
 10 11  2  0  0  0  0
 12  9  1  0  0  0  0
 13 12  1  0  0  0  0
 14 10  1  0  0  0  0
 15 14  1  0  0  0  0
 16 17  1  0  0  0  0
 16 15  1  0  0  0  0
 17 18  1  0  0  0  0
 19 18  1  0  0  0  0
 19 21  1  0  0  0  0
 21 20  1  0  0  0  0
 23 22  1  0  0  0  0
 24 23  1  0  0  0  0
 25 29  1  0  0  0  0
 25 24  1  0  0  0  0
 26 25  1  0  0  0  0
 27 30  1  0  0  0  0
 27 26  1  0  0  0  0
 28 32  1  0  0  0  0
 28 26  2  0  0  0  0
 31 27  1  0  0  0  0
 33 28  1  0  0  0  0
M  END
>  <MODEL>
7

>  <REMARK>
 VINA RESULT:    -6.087      4.439      6.061
 INTER + INTRA:         -13.034
 INTER:                 -11.776
 INTRA:                  -1.258
 UNBOUND:                -1.964
  Name = CHEMBL5286385
  16 active torsions:
  status: ('A' for Active; 'I' for Inactive)
    1  A    between atoms: C_1  and  C_2
    2  A    between atoms: C_2  and  C_3
    3  A    between atoms: C_3  and  C_4
    4  A    between atoms: C_4  and  C_5
    5  A    between atoms: C_5  and  C_6
    6  A    between atoms: C_6  and  C_7
    7  A    between atoms: C_7  and  C_8
    8  A    between atoms: C_8  and  C_9
    9  A    between atoms: N_11  and  C_12
   10  A    between atoms: C_12  and  C_13
   11  A    between atoms: C_16  and  O_17
   12  A    between atoms: O_17  and  C_18
   13  A    between atoms: C_18  and  C_19
   14  A    between atoms: C_19  and  N_20
   15  A    between atoms: C_24  and  O_25
   16  A    between atoms: O_25  and  C_26
                            x       y       z     vdW  Elec       q    Type
                         _______ _______ _______ _____ _____    ______ ____

>  <TORSDO>
F 14

>  <SCORE>
-6.087

>  <RMSD_LB>
4.439

>  <RMSD_UB>
6.061

$$$$
CHEMBL5286385
 OpenBabel10172500283D

 33 33  0  0  0  0  0  0  0  0999 V2000
  137.2480  136.9990  152.6770 C   0  0  0  0  0  0  0  0  0  0  0  0
  137.4880  137.1160  151.3060 C   0  0  0  0  0  3  0  0  0  0  0  0
  136.7110  136.4190  150.3760 C   0  0  0  0  0  3  0  0  0  0  0  0
  135.6970  135.5500  150.7970 C   0  0  0  0  0  0  0  0  0  0  0  0
  135.4690  135.4030  152.1790 C   0  0  0  0  0  0  0  0  0  0  0  0
  136.2280  136.1400  153.1010 C   0  0  0  0  0  3  0  0  0  0  0  0
  134.5080  134.6180  152.7680 O   0  0  0  0  0  0  0  0  0  0  0  0
  134.4150  134.7040  154.1850 C   0  0  0  0  0  1  0  0  0  0  0  0
  138.0910  137.7630  153.6600 C   0  0  0  0  0  2  0  0  0  0  0  0
  140.3440  138.7400  153.7880 C   0  0  0  0  0  0  0  0  0  0  0  0
  140.0010  139.5980  154.5960 O   0  0  0  0  0  0  0  0  0  0  0  0
  139.4770  137.8130  153.2560 N   0  0  0  0  0  0  0  0  0  0  0  0
  139.8080  137.1700  152.5880 H   0  0  0  0  0  0  0  0  0  0  0  0
  141.7670  138.6060  153.2750 C   0  0  0  0  0  2  0  0  0  0  0  0
  141.8600  137.4680  152.2590 C   0  0  0  0  0  2  0  0  0  0  0  0
  142.0630  137.9760  150.8340 C   0  0  0  0  0  2  0  0  0  0  0  0
  140.8740  137.5830  149.9530 C   0  0  0  0  0  2  0  0  0  0  0  0
  140.2560  138.7980  149.2630 C   0  0  0  0  0  2  0  0  0  0  0  0
  140.3150  140.0290  150.1690 C   0  0  0  0  0  2  0  0  0  0  0  0
  137.9940  140.2770  149.2240 C   0  0  0  0  0  1  0  0  0  0  0  0
  139.1690  140.9950  149.8700 C   0  0  0  0  0  2  0  0  0  0  0  0
  134.8950  134.8440  149.9460 O   0  0  0  0  0  0  0  0  0  0  0  0
  134.6300  135.3360  148.6310 C   0  0  0  0  0  2  0  0  0  0  0  0
  133.3840  136.2220  148.7250 C   0  0  0  0  0  2  0  0  0  0  0  0
  133.4630  137.3930  147.8730 N   0  0  0  0  0  0  0  0  0  0  0  0
  133.0480  137.4550  146.5900 C   0  0  0  0  0  0  0  0  0  0  0  0
  132.3530  136.5990  145.9350 N   0  0  0  0  0  4  0  0  0  0  0  0
  133.4280  138.5940  145.9880 N   0  0  0  0  0  0  0  0  0  0  0  0
  133.8510  138.2100  148.2620 H   0  0  0  0  0  0  0  0  0  0  0  0
  132.0690  135.7620  146.3670 H   0  0  0  0  0  0  0  0  0  0  0  0
  132.1040  136.7800  145.0000 H   0  0  0  0  0  0  0  0  0  0  0  0
  133.9620  139.2580  146.4810 H   0  0  0  0  0  0  0  0  0  0  0  0
  133.1730  138.7640  145.0510 H   0  0  0  0  0  0  0  0  0  0  0  0
  1  6  1  0  0  0  0
  1  9  1  0  0  0  0
  2  1  2  0  0  0  0
  3  4  2  0  0  0  0
  3  2  1  0  0  0  0
  4  5  1  0  0  0  0
  5  7  1  0  0  0  0
  5  6  2  0  0  0  0
  7  8  1  0  0  0  0
 10 11  2  0  0  0  0
 12  9  1  0  0  0  0
 12 10  1  0  0  0  0
 13 12  1  0  0  0  0
 14 10  1  0  0  0  0
 15 14  1  0  0  0  0
 16 15  1  0  0  0  0
 17 16  1  0  0  0  0
 18 17  1  0  0  0  0
 18 19  1  0  0  0  0
 20 21  1  0  0  0  0
 21 19  1  0  0  0  0
 22  4  1  0  0  0  0
 23 24  1  0  0  0  0
 23 22  1  0  0  0  0
 25 29  1  0  0  0  0
 25 24  1  0  0  0  0
 26 25  1  0  0  0  0
 27 30  1  0  0  0  0
 27 26  2  0  0  0  0
 28 32  1  0  0  0  0
 28 26  1  0  0  0  0
 31 27  1  0  0  0  0
 33 28  1  0  0  0  0
M  END
>  <MODEL>
8

>  <REMARK>
 VINA RESULT:    -5.993      5.272      8.024
 INTER + INTRA:         -12.861
 INTER:                 -10.897
 INTRA:                  -1.964
 UNBOUND:                -1.964
  Name = CHEMBL5286385
  16 active torsions:
  status: ('A' for Active; 'I' for Inactive)
    1  A    between atoms: C_1  and  C_2
    2  A    between atoms: C_2  and  C_3
    3  A    between atoms: C_3  and  C_4
    4  A    between atoms: C_4  and  C_5
    5  A    between atoms: C_5  and  C_6
    6  A    between atoms: C_6  and  C_7
    7  A    between atoms: C_7  and  C_8
    8  A    between atoms: C_8  and  C_9
    9  A    between atoms: N_11  and  C_12
   10  A    between atoms: C_12  and  C_13
   11  A    between atoms: C_16  and  O_17
   12  A    between atoms: O_17  and  C_18
   13  A    between atoms: C_18  and  C_19
   14  A    between atoms: C_19  and  N_20
   15  A    between atoms: C_24  and  O_25
   16  A    between atoms: O_25  and  C_26
                            x       y       z     vdW  Elec       q    Type
                         _______ _______ _______ _____ _____    ______ ____

>  <TORSDO>
F 14

>  <SCORE>
-5.993

>  <RMSD_LB>
5.272

>  <RMSD_UB>
8.024

$$$$
CHEMBL5286385
 OpenBabel10172500283D

 33 33  0  0  0  0  0  0  0  0999 V2000
  140.2350  137.8570  152.2680 C   0  0  0  0  0  0  0  0  0  0  0  0
  141.0980  138.1230  153.3330 C   0  0  0  0  0  3  0  0  0  0  0  0
  142.4720  137.8920  153.2230 C   0  0  0  0  0  3  0  0  0  0  0  0
  143.0160  137.3450  152.0550 C   0  0  0  0  0  0  0  0  0  0  0  0
  142.1480  137.0450  150.9860 C   0  0  0  0  0  0  0  0  0  0  0  0
  140.7770  137.3220  151.0930 C   0  0  0  0  0  3  0  0  0  0  0  0
  142.5070  136.5300  149.7640 O   0  0  0  0  0  0  0  0  0  0  0  0
  142.6600  137.4740  148.7110 C   0  0  0  0  0  1  0  0  0  0  0  0
  138.7620  138.1210  152.4040 C   0  0  0  0  0  2  0  0  0  0  0  0
  136.8590  136.6180  151.9910 C   0  0  0  0  0  0  0  0  0  0  0  0
  136.4740  136.6740  153.1550 O   0  0  0  0  0  0  0  0  0  0  0  0
  137.9800  137.2720  151.5340 N   0  0  0  0  0  0  0  0  0  0  0  0
  138.2550  137.1600  150.5950 H   0  0  0  0  0  0  0  0  0  0  0  0
  136.1470  135.8110  150.9210 C   0  0  0  0  0  2  0  0  0  0  0  0
  135.8740  134.3920  151.4190 C   0  0  0  0  0  2  0  0  0  0  0  0
  134.3820  134.0790  151.4950 C   0  0  0  0  0  2  0  0  0  0  0  0
  134.0360  132.9040  150.5760 C   0  0  0  0  0  2  0  0  0  0  0  0
  134.0130  133.3250  149.1070 C   0  0  0  0  0  2  0  0  0  0  0  0
  132.8260  134.2460  148.8210 C   0  0  0  0  0  2  0  0  0  0  0  0
  133.2910  136.7040  148.5380 C   0  0  0  0  0  1  0  0  0  0  0  0
  133.2070  135.3550  147.8410 C   0  0  0  0  0  2  0  0  0  0  0  0
  144.3470  137.1000  151.8750 O   0  0  0  0  0  0  0  0  0  0  0  0
  145.2080  138.1250  151.3760 C   0  0  0  0  0  2  0  0  0  0  0  0
  146.0810  138.5900  152.5460 C   0  0  0  0  0  2  0  0  0  0  0  0
  145.7720  139.9400  152.9750 N   0  0  0  0  0  0  0  0  0  0  0  0
  146.2540  140.5370  154.0860 C   0  0  0  0  0  0  0  0  0  0  0  0
  147.1910  140.1350  154.8630 N   0  0  0  0  0  0  0  0  0  0  0  0
  145.6430  141.7070  154.3400 N   0  0  0  0  0  4  0  0  0  0  0  0
  145.1610  140.4650  152.4100 H   0  0  0  0  0  0  0  0  0  0  0  0
  147.6450  139.2800  154.6860 H   0  0  0  0  0  0  0  0  0  0  0  0
  147.4570  140.6820  155.6380 H   0  0  0  0  0  0  0  0  0  0  0  0
  144.9230  142.0250  153.7500 H   0  0  0  0  0  0  0  0  0  0  0  0
  145.9170  142.2460  155.1170 H   0  0  0  0  0  0  0  0  0  0  0  0
  1  9  1  0  0  0  0
  1  2  1  0  0  0  0
  3  2  2  0  0  0  0
  4  3  1  0  0  0  0
  5  6  1  0  0  0  0
  5  4  2  0  0  0  0
  6  1  2  0  0  0  0
  7  5  1  0  0  0  0
  8  7  1  0  0  0  0
 10 11  2  0  0  0  0
 12 10  1  0  0  0  0
 12  9  1  0  0  0  0
 13 12  1  0  0  0  0
 14 15  1  0  0  0  0
 14 10  1  0  0  0  0
 15 16  1  0  0  0  0
 17 16  1  0  0  0  0
 18 17  1  0  0  0  0
 19 18  1  0  0  0  0
 21 20  1  0  0  0  0
 21 19  1  0  0  0  0
 22  4  1  0  0  0  0
 23 22  1  0  0  0  0
 23 24  1  0  0  0  0
 24 25  1  0  0  0  0
 25 26  1  0  0  0  0
 26 28  2  0  0  0  0
 26 27  1  0  0  0  0
 27 31  1  0  0  0  0
 28 33  1  0  0  0  0
 29 25  1  0  0  0  0
 30 27  1  0  0  0  0
 32 28  1  0  0  0  0
M  END
>  <MODEL>
9

>  <REMARK>
 VINA RESULT:    -5.991      4.583      9.739
 INTER + INTRA:         -12.859
 INTER:                 -11.523
 INTRA:                  -1.336
 UNBOUND:                -1.964
  Name = CHEMBL5286385
  16 active torsions:
  status: ('A' for Active; 'I' for Inactive)
    1  A    between atoms: C_1  and  C_2
    2  A    between atoms: C_2  and  C_3
    3  A    between atoms: C_3  and  C_4
    4  A    between atoms: C_4  and  C_5
    5  A    between atoms: C_5  and  C_6
    6  A    between atoms: C_6  and  C_7
    7  A    between atoms: C_7  and  C_8
    8  A    between atoms: C_8  and  C_9
    9  A    between atoms: N_11  and  C_12
   10  A    between atoms: C_12  and  C_13
   11  A    between atoms: C_16  and  O_17
   12  A    between atoms: O_17  and  C_18
   13  A    between atoms: C_18  and  C_19
   14  A    between atoms: C_19  and  N_20
   15  A    between atoms: C_24  and  O_25
   16  A    between atoms: O_25  and  C_26
                            x       y       z     vdW  Elec       q    Type
                         _______ _______ _______ _____ _____    ______ ____

>  <TORSDO>
F 14

>  <SCORE>
-5.991

>  <RMSD_LB>
4.583

>  <RMSD_UB>
9.739

$$$$
