CHEMBL3747410
 OpenBabel10172500453D

 16 16  0  0  0  0  0  0  0  0999 V2000
  136.7250  136.0910  155.4920 C   0  0  0  0  0  0  0  0  0  0  0  0
  136.6760  135.9840  154.1000 C   0  0  0  0  0  3  0  0  0  0  0  0
  135.6430  135.2730  153.4870 C   0  0  0  0  0  3  0  0  0  0  0  0
  134.6460  134.6680  154.2590 C   0  0  0  0  0  0  0  0  0  0  0  0
  134.6740  134.7700  155.6540 C   0  0  0  0  0  0  0  0  0  0  0  0
  135.7160  135.4850  156.2550 C   0  0  0  0  0  3  0  0  0  0  0  0
  133.6560  133.9830  153.6110 O   0  0  0  0  0  0  0  0  0  0  0  0
  133.7690  133.0740  153.4140 H   0  0  0  0  0  0  0  0  0  0  0  0
  133.7940  134.2570  156.5680 O   0  0  0  0  0  0  0  0  0  0  0  0
  133.9500  134.6290  157.9300 C   0  0  0  0  0  1  0  0  0  0  0  0
  137.8140  136.8780  156.1680 C   0  0  0  0  0  2  0  0  0  0  0  0
  137.8830  138.3220  155.7250 C   0  0  0  0  0  0  0  0  0  0  0  0
  136.9270  139.0760  155.5930 O   0  0  0  0  0  0  0  0  0  0  0  0
  139.1650  138.6120  155.3530 O   0  0  0  0  0  0  0  0  0  0  0  0
  139.5720  138.0370  153.0740 C   0  0  0  0  0  1  0  0  0  0  0  0
  139.3080  139.1750  154.0420 C   0  0  0  0  0  2  0  0  0  0  0  0
  1 11  1  0  0  0  0
  1  6  1  0  0  0  0
  2  1  2  0  0  0  0
  3  2  1  0  0  0  0
  3  4  2  0  0  0  0
  4  5  1  0  0  0  0
  5  6  2  0  0  0  0
  5  9  1  0  0  0  0
  7  4  1  0  0  0  0
  8  7  1  0  0  0  0
  9 10  1  0  0  0  0
 12 11  1  0  0  0  0
 13 12  2  0  0  0  0
 14 12  1  0  0  0  0
 15 16  1  0  0  0  0
 16 14  1  0  0  0  0
M  END
>  <MODEL>
1

>  <REMARK>
 VINA RESULT:    -5.921      0.000      0.000
 INTER + INTRA:          -8.320
 INTER:                  -7.808
 INTRA:                  -0.512
 UNBOUND:                -0.495
  Name = CHEMBL3747410
  8 active torsions:
  status: ('A' for Active; 'I' for Inactive)
    1  A    between atoms: C_1  and  C_2
    2  A    between atoms: C_2  and  O_3
    3  A    between atoms: O_3  and  C_4
    4  A    between atoms: C_4  and  C_6
    5  A    between atoms: C_6  and  C_7
    6  A    between atoms: C_10  and  O_11
    7  A    between atoms: C_12  and  O_13
    8  A    between atoms: O_13  and  C_14
                            x       y       z     vdW  Elec       q    Type
                         _______ _______ _______ _____ _____    ______ ____

>  <TORSDO>
F 6

>  <SCORE>
-5.921

>  <RMSD_LB>
0.000

>  <RMSD_UB>
0.000

$$$$
CHEMBL3747410
 OpenBabel10172500453D

 16 16  0  0  0  0  0  0  0  0999 V2000
  136.5690  136.0900  155.0910 C   0  0  0  0  0  0  0  0  0  0  0  0
  136.4540  135.9950  153.7020 C   0  0  0  0  0  3  0  0  0  0  0  0
  135.4670  135.1900  153.1330 C   0  0  0  0  0  3  0  0  0  0  0  0
  134.5800  134.4770  153.9460 C   0  0  0  0  0  0  0  0  0  0  0  0
  134.6740  134.5640  155.3390 C   0  0  0  0  0  0  0  0  0  0  0  0
  135.6700  135.3750  155.8960 C   0  0  0  0  0  3  0  0  0  0  0  0
  133.6310  133.7020  153.3400 O   0  0  0  0  0  0  0  0  0  0  0  0
  132.9630  133.2920  153.8540 H   0  0  0  0  0  0  0  0  0  0  0  0
  133.9020  133.9540  156.2900 O   0  0  0  0  0  0  0  0  0  0  0  0
  133.8230  134.5530  157.5750 C   0  0  0  0  0  1  0  0  0  0  0  0
  137.6080  136.9760  155.7220 C   0  0  0  0  0  2  0  0  0  0  0  0
  137.0960  138.3540  156.0750 C   0  0  0  0  0  0  0  0  0  0  0  0
  137.0440  139.3140  155.3170 O   0  0  0  0  0  0  0  0  0  0  0  0
  136.8380  138.4010  157.4160 O   0  0  0  0  0  0  0  0  0  0  0  0
  136.8690  136.9150  159.2820 C   0  0  0  0  0  1  0  0  0  0  0  0
  137.7150  137.6170  158.2350 C   0  0  0  0  0  2  0  0  0  0  0  0
  1 11  1  0  0  0  0
  1  6  1  0  0  0  0
  2  1  2  0  0  0  0
  3  2  1  0  0  0  0
  3  4  2  0  0  0  0
  4  5  1  0  0  0  0
  5  6  2  0  0  0  0
  5  9  1  0  0  0  0
  7  8  1  0  0  0  0
  7  4  1  0  0  0  0
  9 10  1  0  0  0  0
 11 12  1  0  0  0  0
 12 14  1  0  0  0  0
 13 12  2  0  0  0  0
 14 16  1  0  0  0  0
 16 15  1  0  0  0  0
M  END
>  <MODEL>
2

>  <REMARK>
 VINA RESULT:    -5.881      1.397      2.338
 INTER + INTRA:          -8.267
 INTER:                  -7.778
 INTRA:                  -0.489
 UNBOUND:                -0.495
  Name = CHEMBL3747410
  8 active torsions:
  status: ('A' for Active; 'I' for Inactive)
    1  A    between atoms: C_1  and  C_2
    2  A    between atoms: C_2  and  O_3
    3  A    between atoms: O_3  and  C_4
    4  A    between atoms: C_4  and  C_6
    5  A    between atoms: C_6  and  C_7
    6  A    between atoms: C_10  and  O_11
    7  A    between atoms: C_12  and  O_13
    8  A    between atoms: O_13  and  C_14
                            x       y       z     vdW  Elec       q    Type
                         _______ _______ _______ _____ _____    ______ ____

>  <TORSDO>
F 6

>  <SCORE>
-5.881

>  <RMSD_LB>
1.397

>  <RMSD_UB>
2.338

$$$$
CHEMBL3747410
 OpenBabel10172500453D

 16 16  0  0  0  0  0  0  0  0999 V2000
  136.7360  136.0290  156.4300 C   0  0  0  0  0  0  0  0  0  0  0  0
  136.4550  135.7840  157.7770 C   0  0  0  0  0  3  0  0  0  0  0  0
  135.3140  135.0640  158.1360 C   0  0  0  0  0  3  0  0  0  0  0  0
  134.4490  134.5740  157.1530 C   0  0  0  0  0  0  0  0  0  0  0  0
  134.7170  134.8020  155.7990 C   0  0  0  0  0  0  0  0  0  0  0  0
  135.8630  135.5280  155.4530 C   0  0  0  0  0  3  0  0  0  0  0  0
  133.3450  133.8750  157.5560 O   0  0  0  0  0  0  0  0  0  0  0  0
  133.4370  133.1610  158.1550 H   0  0  0  0  0  0  0  0  0  0  0  0
  133.9990  134.4030  154.7040 O   0  0  0  0  0  0  0  0  0  0  0  0
  133.9280  135.2830  153.5920 C   0  0  0  0  0  1  0  0  0  0  0  0
  137.9760  136.7780  156.0240 C   0  0  0  0  0  2  0  0  0  0  0  0
  137.6930  138.0180  155.2050 C   0  0  0  0  0  0  0  0  0  0  0  0
  137.0020  138.9650  155.5570 O   0  0  0  0  0  0  0  0  0  0  0  0
  138.2100  137.8490  153.9520 O   0  0  0  0  0  0  0  0  0  0  0  0
  140.3550  138.1150  152.9410 C   0  0  0  0  0  1  0  0  0  0  0  0
  139.1660  138.8380  153.5470 C   0  0  0  0  0  2  0  0  0  0  0  0
  1  2  1  0  0  0  0
  2  3  2  0  0  0  0
  4  7  1  0  0  0  0
  4  3  1  0  0  0  0
  5  4  2  0  0  0  0
  6  5  1  0  0  0  0
  6  1  2  0  0  0  0
  7  8  1  0  0  0  0
  9  5  1  0  0  0  0
 10  9  1  0  0  0  0
 11  1  1  0  0  0  0
 12 13  2  0  0  0  0
 12 11  1  0  0  0  0
 14 12  1  0  0  0  0
 15 16  1  0  0  0  0
 16 14  1  0  0  0  0
M  END
>  <MODEL>
3

>  <REMARK>
 VINA RESULT:    -5.646      1.070      2.433
 INTER + INTRA:          -7.956
 INTER:                  -7.615
 INTRA:                  -0.341
 UNBOUND:                -0.495
  Name = CHEMBL3747410
  8 active torsions:
  status: ('A' for Active; 'I' for Inactive)
    1  A    between atoms: C_1  and  C_2
    2  A    between atoms: C_2  and  O_3
    3  A    between atoms: O_3  and  C_4
    4  A    between atoms: C_4  and  C_6
    5  A    between atoms: C_6  and  C_7
    6  A    between atoms: C_10  and  O_11
    7  A    between atoms: C_12  and  O_13
    8  A    between atoms: O_13  and  C_14
                            x       y       z     vdW  Elec       q    Type
                         _______ _______ _______ _____ _____    ______ ____

>  <TORSDO>
F 6

>  <SCORE>
-5.646

>  <RMSD_LB>
1.070

>  <RMSD_UB>
2.433

$$$$
CHEMBL3747410
 OpenBabel10172500453D

 16 16  0  0  0  0  0  0  0  0999 V2000
  136.5890  136.1610  155.3360 C   0  0  0  0  0  0  0  0  0  0  0  0
  135.6020  135.4830  156.0570 C   0  0  0  0  0  3  0  0  0  0  0  0
  134.5490  134.8590  155.3870 C   0  0  0  0  0  3  0  0  0  0  0  0
  134.4760  134.8990  153.9910 C   0  0  0  0  0  0  0  0  0  0  0  0
  135.4580  135.5670  153.2510 C   0  0  0  0  0  0  0  0  0  0  0  0
  136.5070  136.1900  153.9370 C   0  0  0  0  0  3  0  0  0  0  0  0
  133.4240  134.2720  153.3820 O   0  0  0  0  0  0  0  0  0  0  0  0
  133.4710  133.3550  153.1940 H   0  0  0  0  0  0  0  0  0  0  0  0
  135.5600  135.7090  151.8940 O   0  0  0  0  0  0  0  0  0  0  0  0
  136.6490  136.4620  151.3790 C   0  0  0  0  0  1  0  0  0  0  0  0
  137.7460  136.8160  156.0400 C   0  0  0  0  0  2  0  0  0  0  0  0
  137.8860  138.2900  155.7350 C   0  0  0  0  0  0  0  0  0  0  0  0
  136.9650  139.0900  155.6330 O   0  0  0  0  0  0  0  0  0  0  0  0
  139.1930  138.5610  155.4460 O   0  0  0  0  0  0  0  0  0  0  0  0
  139.6370  138.0880  153.1500 C   0  0  0  0  0  1  0  0  0  0  0  0
  139.4210  139.1860  154.1760 C   0  0  0  0  0  2  0  0  0  0  0  0
  1 11  1  0  0  0  0
  1  2  1  0  0  0  0
  3  2  2  0  0  0  0
  4  3  1  0  0  0  0
  5  6  1  0  0  0  0
  5  4  2  0  0  0  0
  6  1  2  0  0  0  0
  7  4  1  0  0  0  0
  8  7  1  0  0  0  0
  9  5  1  0  0  0  0
 10  9  1  0  0  0  0
 12 11  1  0  0  0  0
 13 12  2  0  0  0  0
 14 12  1  0  0  0  0
 15 16  1  0  0  0  0
 16 14  1  0  0  0  0
M  END
>  <MODEL>
4

>  <REMARK>
 VINA RESULT:    -5.559      1.097      2.644
 INTER + INTRA:          -7.841
 INTER:                  -7.347
 INTRA:                  -0.494
 UNBOUND:                -0.495
  Name = CHEMBL3747410
  8 active torsions:
  status: ('A' for Active; 'I' for Inactive)
    1  A    between atoms: C_1  and  C_2
    2  A    between atoms: C_2  and  O_3
    3  A    between atoms: O_3  and  C_4
    4  A    between atoms: C_4  and  C_6
    5  A    between atoms: C_6  and  C_7
    6  A    between atoms: C_10  and  O_11
    7  A    between atoms: C_12  and  O_13
    8  A    between atoms: O_13  and  C_14
                            x       y       z     vdW  Elec       q    Type
                         _______ _______ _______ _____ _____    ______ ____

>  <TORSDO>
F 6

>  <SCORE>
-5.559

>  <RMSD_LB>
1.097

>  <RMSD_UB>
2.644

$$$$
CHEMBL3747410
 OpenBabel10172500453D

 16 16  0  0  0  0  0  0  0  0999 V2000
  146.3400  141.9110  152.2840 C   0  0  0  0  0  0  0  0  0  0  0  0
  147.3400  142.3280  151.4010 C   0  0  0  0  0  3  0  0  0  0  0  0
  147.1770  142.1570  150.0260 C   0  0  0  0  0  3  0  0  0  0  0  0
  146.0110  141.5760  149.5180 C   0  0  0  0  0  0  0  0  0  0  0  0
  144.9950  141.1600  150.3850 C   0  0  0  0  0  0  0  0  0  0  0  0
  145.1720  141.3360  151.7620 C   0  0  0  0  0  3  0  0  0  0  0  0
  145.9000  141.4310  148.1630 O   0  0  0  0  0  0  0  0  0  0  0  0
  145.5180  140.6530  147.8050 H   0  0  0  0  0  0  0  0  0  0  0  0
  143.7920  140.5820  150.0800 O   0  0  0  0  0  0  0  0  0  0  0  0
  143.4610  139.3520  150.7090 C   0  0  0  0  0  1  0  0  0  0  0  0
  146.4850  142.1140  153.7670 C   0  0  0  0  0  2  0  0  0  0  0  0
  147.7510  141.5170  154.3390 C   0  0  0  0  0  0  0  0  0  0  0  0
  148.8010  142.1160  154.5330 O   0  0  0  0  0  0  0  0  0  0  0  0
  147.5860  140.1670  154.4680 O   0  0  0  0  0  0  0  0  0  0  0  0
  148.0650  138.6060  152.7290 C   0  0  0  0  0  1  0  0  0  0  0  0
  148.6370  139.3660  153.9120 C   0  0  0  0  0  2  0  0  0  0  0  0
  1 11  1  0  0  0  0
  2  1  2  0  0  0  0
  3  2  1  0  0  0  0
  4  3  2  0  0  0  0
  4  5  1  0  0  0  0
  5  6  2  0  0  0  0
  6  1  1  0  0  0  0
  7  4  1  0  0  0  0
  8  7  1  0  0  0  0
  9  5  1  0  0  0  0
  9 10  1  0  0  0  0
 11 12  1  0  0  0  0
 12 14  1  0  0  0  0
 12 13  2  0  0  0  0
 15 16  1  0  0  0  0
 16 14  1  0  0  0  0
M  END
>  <MODEL>
5

>  <REMARK>
 VINA RESULT:    -5.411      9.621     12.093
 INTER + INTRA:          -7.646
 INTER:                  -7.021
 INTRA:                  -0.625
 UNBOUND:                -0.495
  Name = CHEMBL3747410
  8 active torsions:
  status: ('A' for Active; 'I' for Inactive)
    1  A    between atoms: C_1  and  C_2
    2  A    between atoms: C_2  and  O_3
    3  A    between atoms: O_3  and  C_4
    4  A    between atoms: C_4  and  C_6
    5  A    between atoms: C_6  and  C_7
    6  A    between atoms: C_10  and  O_11
    7  A    between atoms: C_12  and  O_13
    8  A    between atoms: O_13  and  C_14
                            x       y       z     vdW  Elec       q    Type
                         _______ _______ _______ _____ _____    ______ ____

>  <TORSDO>
F 6

>  <SCORE>
-5.411

>  <RMSD_LB>
9.621

>  <RMSD_UB>
12.093

$$$$
CHEMBL3747410
 OpenBabel10172500453D

 16 16  0  0  0  0  0  0  0  0999 V2000
  136.1760  136.0370  155.9910 C   0  0  0  0  0  0  0  0  0  0  0  0
  137.0450  137.0930  155.7040 C   0  0  0  0  0  3  0  0  0  0  0  0
  137.5740  137.8670  156.7370 C   0  0  0  0  0  3  0  0  0  0  0  0
  137.2470  137.5890  158.0680 C   0  0  0  0  0  0  0  0  0  0  0  0
  136.3850  136.5320  158.3770 C   0  0  0  0  0  0  0  0  0  0  0  0
  135.8600  135.7650  157.3300 C   0  0  0  0  0  3  0  0  0  0  0  0
  137.7920  138.3770  159.0440 O   0  0  0  0  0  0  0  0  0  0  0  0
  137.8060  138.0800  159.9320 H   0  0  0  0  0  0  0  0  0  0  0  0
  135.9560  136.1070  159.6050 O   0  0  0  0  0  0  0  0  0  0  0  0
  134.5620  135.9150  159.7990 C   0  0  0  0  0  1  0  0  0  0  0  0
  135.6190  135.1740  154.8920 C   0  0  0  0  0  2  0  0  0  0  0  0
  134.2340  135.5820  154.4440 C   0  0  0  0  0  0  0  0  0  0  0  0
  133.1800  135.1820  154.9220 O   0  0  0  0  0  0  0  0  0  0  0  0
  134.3400  136.3560  153.3240 O   0  0  0  0  0  0  0  0  0  0  0  0
  134.9330  135.9950  151.0410 C   0  0  0  0  0  1  0  0  0  0  0  0
  133.8860  135.7420  152.1110 C   0  0  0  0  0  2  0  0  0  0  0  0
  1  6  1  0  0  0  0
  2  1  2  0  0  0  0
  2  3  1  0  0  0  0
  3  4  2  0  0  0  0
  4  5  1  0  0  0  0
  4  7  1  0  0  0  0
  5  9  1  0  0  0  0
  6  5  2  0  0  0  0
  7  8  1  0  0  0  0
  9 10  1  0  0  0  0
 11  1  1  0  0  0  0
 12 11  1  0  0  0  0
 12 13  2  0  0  0  0
 14 12  1  0  0  0  0
 15 16  1  0  0  0  0
 16 14  1  0  0  0  0
M  END
>  <MODEL>
6

>  <REMARK>
 VINA RESULT:    -5.317      2.278      4.673
 INTER + INTRA:          -7.521
 INTER:                  -7.185
 INTRA:                  -0.336
 UNBOUND:                -0.495
  Name = CHEMBL3747410
  8 active torsions:
  status: ('A' for Active; 'I' for Inactive)
    1  A    between atoms: C_1  and  C_2
    2  A    between atoms: C_2  and  O_3
    3  A    between atoms: O_3  and  C_4
    4  A    between atoms: C_4  and  C_6
    5  A    between atoms: C_6  and  C_7
    6  A    between atoms: C_10  and  O_11
    7  A    between atoms: C_12  and  O_13
    8  A    between atoms: O_13  and  C_14
                            x       y       z     vdW  Elec       q    Type
                         _______ _______ _______ _____ _____    ______ ____

>  <TORSDO>
F 6

>  <SCORE>
-5.317

>  <RMSD_LB>
2.278

>  <RMSD_UB>
4.673

$$$$
CHEMBL3747410
 OpenBabel10172500453D

 16 16  0  0  0  0  0  0  0  0999 V2000
  136.4490  136.0350  155.1740 C   0  0  0  0  0  0  0  0  0  0  0  0
  135.4460  135.3300  155.8440 C   0  0  0  0  0  3  0  0  0  0  0  0
  134.3780  134.7820  155.1310 C   0  0  0  0  0  3  0  0  0  0  0  0
  134.3080  134.9260  153.7420 C   0  0  0  0  0  0  0  0  0  0  0  0
  135.3060  135.6220  153.0520 C   0  0  0  0  0  0  0  0  0  0  0  0
  136.3700  136.1680  153.7800 C   0  0  0  0  0  3  0  0  0  0  0  0
  133.2420  134.3710  153.0900 O   0  0  0  0  0  0  0  0  0  0  0  0
  132.9910  134.6900  152.2450 H   0  0  0  0  0  0  0  0  0  0  0  0
  135.4130  135.8610  151.7090 O   0  0  0  0  0  0  0  0  0  0  0  0
  136.6430  136.3700  151.2150 C   0  0  0  0  0  1  0  0  0  0  0  0
  137.6220  136.6070  155.9230 C   0  0  0  0  0  2  0  0  0  0  0  0
  137.2670  137.7960  156.7870 C   0  0  0  0  0  0  0  0  0  0  0  0
  136.9410  138.9040  156.3810 O   0  0  0  0  0  0  0  0  0  0  0  0
  137.5110  137.4830  158.0950 O   0  0  0  0  0  0  0  0  0  0  0  0
  136.3000  138.4800  159.8920 C   0  0  0  0  0  1  0  0  0  0  0  0
  136.3450  137.3210  158.9120 C   0  0  0  0  0  2  0  0  0  0  0  0
  1  2  1  0  0  0  0
  1 11  1  0  0  0  0
  3  2  2  0  0  0  0
  4  3  1  0  0  0  0
  5  4  2  0  0  0  0
  5  6  1  0  0  0  0
  6  1  2  0  0  0  0
  7  4  1  0  0  0  0
  8  7  1  0  0  0  0
  9  5  1  0  0  0  0
 10  9  1  0  0  0  0
 11 12  1  0  0  0  0
 12 14  1  0  0  0  0
 13 12  2  0  0  0  0
 14 16  1  0  0  0  0
 16 15  1  0  0  0  0
M  END
>  <MODEL>
7

>  <REMARK>
 VINA RESULT:    -5.187      2.003      3.806
 INTER + INTRA:          -7.350
 INTER:                  -6.950
 INTRA:                  -0.400
 UNBOUND:                -0.495
  Name = CHEMBL3747410
  8 active torsions:
  status: ('A' for Active; 'I' for Inactive)
    1  A    between atoms: C_1  and  C_2
    2  A    between atoms: C_2  and  O_3
    3  A    between atoms: O_3  and  C_4
    4  A    between atoms: C_4  and  C_6
    5  A    between atoms: C_6  and  C_7
    6  A    between atoms: C_10  and  O_11
    7  A    between atoms: C_12  and  O_13
    8  A    between atoms: O_13  and  C_14
                            x       y       z     vdW  Elec       q    Type
                         _______ _______ _______ _____ _____    ______ ____

>  <TORSDO>
F 6

>  <SCORE>
-5.187

>  <RMSD_LB>
2.003

>  <RMSD_UB>
3.806

$$$$
CHEMBL3747410
 OpenBabel10172500453D

 16 16  0  0  0  0  0  0  0  0999 V2000
  136.2130  135.8530  156.0040 C   0  0  0  0  0  0  0  0  0  0  0  0
  135.0260  135.1340  155.8470 C   0  0  0  0  0  3  0  0  0  0  0  0
  134.3280  134.6810  156.9670 C   0  0  0  0  0  3  0  0  0  0  0  0
  134.8050  134.9490  158.2540 C   0  0  0  0  0  0  0  0  0  0  0  0
  135.9880  135.6740  158.4320 C   0  0  0  0  0  0  0  0  0  0  0  0
  136.6790  136.1210  157.2990 C   0  0  0  0  0  3  0  0  0  0  0  0
  134.0840  134.4830  159.3190 O   0  0  0  0  0  0  0  0  0  0  0  0
  134.2980  134.7630  160.1870 H   0  0  0  0  0  0  0  0  0  0  0  0
  136.6030  136.0370  159.5990 O   0  0  0  0  0  0  0  0  0  0  0  0
  136.2020  137.2500  160.2190 C   0  0  0  0  0  1  0  0  0  0  0  0
  136.9640  136.3740  154.8080 C   0  0  0  0  0  2  0  0  0  0  0  0
  137.5770  137.7390  155.0250 C   0  0  0  0  0  0  0  0  0  0  0  0
  136.9830  138.7370  155.4140 O   0  0  0  0  0  0  0  0  0  0  0  0
  138.8670  137.7230  154.5770 O   0  0  0  0  0  0  0  0  0  0  0  0
  140.1310  137.3230  156.5610 C   0  0  0  0  0  1  0  0  0  0  0  0
  139.8280  138.3200  155.4580 C   0  0  0  0  0  2  0  0  0  0  0  0
  1  6  1  0  0  0  0
  2  1  2  0  0  0  0
  2  3  1  0  0  0  0
  3  4  2  0  0  0  0
  4  5  1  0  0  0  0
  4  7  1  0  0  0  0
  5  9  1  0  0  0  0
  6  5  2  0  0  0  0
  7  8  1  0  0  0  0
  9 10  1  0  0  0  0
 11 12  1  0  0  0  0
 11  1  1  0  0  0  0
 12 13  2  0  0  0  0
 14 12  1  0  0  0  0
 14 16  1  0  0  0  0
 16 15  1  0  0  0  0
M  END
>  <MODEL>
8

>  <REMARK>
 VINA RESULT:    -5.167      2.114      3.075
 INTER + INTRA:          -7.323
 INTER:                  -6.929
 INTRA:                  -0.394
 UNBOUND:                -0.495
  Name = CHEMBL3747410
  8 active torsions:
  status: ('A' for Active; 'I' for Inactive)
    1  A    between atoms: C_1  and  C_2
    2  A    between atoms: C_2  and  O_3
    3  A    between atoms: O_3  and  C_4
    4  A    between atoms: C_4  and  C_6
    5  A    between atoms: C_6  and  C_7
    6  A    between atoms: C_10  and  O_11
    7  A    between atoms: C_12  and  O_13
    8  A    between atoms: O_13  and  C_14
                            x       y       z     vdW  Elec       q    Type
                         _______ _______ _______ _____ _____    ______ ____

>  <TORSDO>
F 6

>  <SCORE>
-5.167

>  <RMSD_LB>
2.114

>  <RMSD_UB>
3.075

$$$$
CHEMBL3747410
 OpenBabel10172500453D

 16 16  0  0  0  0  0  0  0  0999 V2000
  134.8280  134.2200  150.5710 C   0  0  0  0  0  0  0  0  0  0  0  0
  133.5120  133.8820  150.9000 C   0  0  0  0  0  3  0  0  0  0  0  0
  132.5720  133.6630  149.8930 C   0  0  0  0  0  3  0  0  0  0  0  0
  132.9380  133.7700  148.5470 C   0  0  0  0  0  0  0  0  0  0  0  0
  134.2510  134.1000  148.1970 C   0  0  0  0  0  0  0  0  0  0  0  0
  135.1840  134.3190  149.2180 C   0  0  0  0  0  3  0  0  0  0  0  0
  131.9790  133.5460  147.5990 O   0  0  0  0  0  0  0  0  0  0  0  0
  131.1790  133.1170  147.8330 H   0  0  0  0  0  0  0  0  0  0  0  0
  134.7950  134.2450  146.9500 O   0  0  0  0  0  0  0  0  0  0  0  0
  135.7830  133.3110  146.5370 C   0  0  0  0  0  1  0  0  0  0  0  0
  135.8620  134.4310  151.6430 C   0  0  0  0  0  2  0  0  0  0  0  0
  136.1410  135.8880  151.9360 C   0  0  0  0  0  0  0  0  0  0  0  0
  137.0490  136.5540  151.4560 O   0  0  0  0  0  0  0  0  0  0  0  0
  135.3090  136.3060  152.9360 O   0  0  0  0  0  0  0  0  0  0  0  0
  133.9060  135.5060  154.6920 C   0  0  0  0  0  1  0  0  0  0  0  0
  135.3090  135.4890  154.1140 C   0  0  0  0  0  2  0  0  0  0  0  0
  1  2  1  0  0  0  0
  1 11  1  0  0  0  0
  3  2  2  0  0  0  0
  4  3  1  0  0  0  0
  5  4  2  0  0  0  0
  5  6  1  0  0  0  0
  6  1  2  0  0  0  0
  7  8  1  0  0  0  0
  7  4  1  0  0  0  0
  9  5  1  0  0  0  0
 10  9  1  0  0  0  0
 11 12  1  0  0  0  0
 12 14  1  0  0  0  0
 13 12  2  0  0  0  0
 14 16  1  0  0  0  0
 16 15  1  0  0  0  0
M  END
>  <MODEL>
9

>  <REMARK>
 VINA RESULT:    -5.145      4.546      6.664
 INTER + INTRA:          -7.294
 INTER:                  -6.799
 INTRA:                  -0.495
 UNBOUND:                -0.495
  Name = CHEMBL3747410
  8 active torsions:
  status: ('A' for Active; 'I' for Inactive)
    1  A    between atoms: C_1  and  C_2
    2  A    between atoms: C_2  and  O_3
    3  A    between atoms: O_3  and  C_4
    4  A    between atoms: C_4  and  C_6
    5  A    between atoms: C_6  and  C_7
    6  A    between atoms: C_10  and  O_11
    7  A    between atoms: C_12  and  O_13
    8  A    between atoms: O_13  and  C_14
                            x       y       z     vdW  Elec       q    Type
                         _______ _______ _______ _____ _____    ______ ____

>  <TORSDO>
F 6

>  <SCORE>
-5.145

>  <RMSD_LB>
4.546

>  <RMSD_UB>
6.664

$$$$
