CHEMBL80200
 OpenBabel10172500523D

 23 23  0  0  1  0  0  0  0  0999 V2000
  145.5590  140.9360  154.3460 N   0  0  0  0  0  0  0  0  0  0  0  0
  145.5660  139.6810  154.6310 C   0  0  2  0  0  3  0  0  0  0  0  0
  144.4310  138.9650  154.8620 N   0  0  0  0  0  0  0  0  0  0  0  0
  144.6910  141.3890  154.2450 H   0  0  0  0  0  0  0  0  0  0  0  0
  144.5210  138.1000  155.3250 H   0  0  0  0  0  0  0  0  0  0  0  0
  146.9950  138.6760  154.7830 S   0  0  0  0  0  0  0  0  0  0  0  0
  147.4440  138.7180  156.0660 H   0  0  0  0  0  0  0  0  0  0  0  0
  146.7760  141.7150  154.1680 C   0  0  0  0  0  2  0  0  0  0  0  0
  146.9550  142.0260  152.6800 C   0  0  0  0  0  2  0  0  0  0  0  0
  145.6390  142.4410  152.0150 C   0  0  0  0  0  2  0  0  0  0  0  0
  147.2610  142.7100  150.1120 C   0  0  0  0  0  1  0  0  0  0  0  0
  145.7940  142.6110  150.5050 C   0  0  0  0  0  2  0  0  0  0  0  0
  143.1060  139.3830  154.4790 C   0  0  0  0  0  2  0  0  0  0  0  0
  142.7100  138.7830  153.1510 C   0  0  0  0  0  0  0  0  0  0  0  0
  141.6070  137.9270  153.0670 C   0  0  0  0  0  3  0  0  0  0  0  0
  141.2590  137.3340  151.8510 C   0  0  0  0  0  3  0  0  0  0  0  0
  142.0050  137.5990  150.6990 C   0  0  0  0  0  0  0  0  0  0  0  0
  143.0990  138.4710  150.7480 C   0  0  0  0  0  0  0  0  0  0  0  0
  143.4340  139.0600  151.9790 C   0  0  0  0  0  3  0  0  0  0  0  0
  141.6330  136.9840  149.5320 O   0  0  0  0  0  0  0  0  0  0  0  0
  140.9770  137.3720  148.9860 H   0  0  0  0  0  0  0  0  0  0  0  0
  143.9310  138.8480  149.7270 O   0  0  0  0  0  0  0  0  0  0  0  0
  143.5330  139.9340  148.9000 C   0  0  0  0  0  1  0  0  0  0  0  0
  1  2  1  0  0  0  0
  2  6  1  1  0  0  0
  2  3  1  0  0  0  0
  3  5  1  0  0  0  0
  4  1  1  0  0  0  0
  6  7  1  0  0  0  0
  8  1  1  0  0  0  0
  9  8  1  0  0  0  0
 10  9  1  0  0  0  0
 11 12  1  0  0  0  0
 12 10  1  0  0  0  0
 13  3  1  0  0  0  0
 14 13  1  0  0  0  0
 15 14  1  0  0  0  0
 16 15  2  0  0  0  0
 17 18  2  0  0  0  0
 17 16  1  0  0  0  0
 18 19  1  0  0  0  0
 19 14  2  0  0  0  0
 20 17  1  0  0  0  0
 21 20  1  0  0  0  0
 22 18  1  0  0  0  0
 23 22  1  0  0  0  0
M  END
>  <MODEL>
1

>  <REMARK>
 VINA RESULT:    -6.144      0.000      0.000
 INTER + INTRA:          -9.371
 INTER:                  -8.705
 INTRA:                  -0.666
 UNBOUND:                -0.353
  Name = CHEMBL80200
  11 active torsions:
  status: ('A' for Active; 'I' for Inactive)
    1  A    between atoms: C_1  and  C_2
    2  A    between atoms: C_2  and  C_3
    3  A    between atoms: C_3  and  C_4
    4  A    between atoms: C_4  and  C_5
    5  A    between atoms: C_5  and  N_6
    6  A    between atoms: C_7  and  S_8
    7  A    between atoms: N_9  and  C_10
    8  A    between atoms: C_10  and  C_11
    9  A    between atoms: C_14  and  O_15
   10  A    between atoms: C_16  and  O_17
   11  A    between atoms: O_17  and  C_18
                            x       y       z     vdW  Elec       q    Type
                         _______ _______ _______ _____ _____    ______ ____

>  <TORSDO>
F 9

>  <SCORE>
-6.144

>  <RMSD_LB>
0.000

>  <RMSD_UB>
0.000

$$$$
CHEMBL80200
 OpenBabel10172500523D

 23 23  0  0  1  0  0  0  0  0999 V2000
  144.3380  140.6890  149.3480 N   0  0  0  0  0  0  0  0  0  0  0  0
  145.5310  140.6400  148.8660 C   0  0  2  0  0  3  0  0  0  0  0  0
  146.4440  141.6340  149.0390 N   0  0  0  0  0  0  0  0  0  0  0  0
  144.0910  141.4590  149.9090 H   0  0  0  0  0  0  0  0  0  0  0  0
  147.2220  141.6520  148.4350 H   0  0  0  0  0  0  0  0  0  0  0  0
  146.1920  139.3270  147.9100 S   0  0  0  0  0  0  0  0  0  0  0  0
  147.0250  139.8330  146.9610 H   0  0  0  0  0  0  0  0  0  0  0  0
  143.3410  139.6570  149.1030 C   0  0  0  0  0  2  0  0  0  0  0  0
  142.5250  139.4390  150.3790 C   0  0  0  0  0  2  0  0  0  0  0  0
  143.4010  138.9880  151.5540 C   0  0  0  0  0  2  0  0  0  0  0  0
  141.4770  137.3780  151.7380 C   0  0  0  0  0  1  0  0  0  0  0  0
  142.6750  137.9890  152.4520 C   0  0  0  0  0  2  0  0  0  0  0  0
  146.3540  142.6630  150.0440 C   0  0  0  0  0  2  0  0  0  0  0  0
  146.9670  142.2060  151.3470 C   0  0  0  0  0  0  0  0  0  0  0  0
  148.3550  142.2190  151.5140 C   0  0  0  0  0  3  0  0  0  0  0  0
  148.9330  141.7570  152.6990 C   0  0  0  0  0  3  0  0  0  0  0  0
  148.1260  141.2880  153.7390 C   0  0  0  0  0  0  0  0  0  0  0  0
  146.7320  141.2870  153.6100 C   0  0  0  0  0  0  0  0  0  0  0  0
  146.1680  141.7560  152.4110 C   0  0  0  0  0  3  0  0  0  0  0  0
  148.7380  140.8340  154.8780 O   0  0  0  0  0  0  0  0  0  0  0  0
  149.6460  141.0140  155.0260 H   0  0  0  0  0  0  0  0  0  0  0  0
  145.7950  140.8720  154.5200 O   0  0  0  0  0  0  0  0  0  0  0  0
  145.4830  139.4870  154.5810 C   0  0  0  0  0  1  0  0  0  0  0  0
  1  4  1  0  0  0  0
  2  6  1  6  0  0  0
  2  3  1  0  0  0  0
  2  1  1  0  0  0  0
  3 13  1  0  0  0  0
  5  3  1  0  0  0  0
  7  6  1  0  0  0  0
  8  1  1  0  0  0  0
  8  9  1  0  0  0  0
  9 10  1  0  0  0  0
 10 12  1  0  0  0  0
 11 12  1  0  0  0  0
 13 14  1  0  0  0  0
 14 15  2  0  0  0  0
 14 19  1  0  0  0  0
 15 16  1  0  0  0  0
 16 17  2  0  0  0  0
 17 20  1  0  0  0  0
 18 17  1  0  0  0  0
 18 22  1  0  0  0  0
 19 18  2  0  0  0  0
 20 21  1  0  0  0  0
 22 23  1  0  0  0  0
M  END
>  <MODEL>
2

>  <REMARK>
 VINA RESULT:    -6.054      3.331      6.605
 INTER + INTRA:          -9.239
 INTER:                  -8.475
 INTRA:                  -0.764
 UNBOUND:                -0.353
  Name = CHEMBL80200
  11 active torsions:
  status: ('A' for Active; 'I' for Inactive)
    1  A    between atoms: C_1  and  C_2
    2  A    between atoms: C_2  and  C_3
    3  A    between atoms: C_3  and  C_4
    4  A    between atoms: C_4  and  C_5
    5  A    between atoms: C_5  and  N_6
    6  A    between atoms: C_7  and  S_8
    7  A    between atoms: N_9  and  C_10
    8  A    between atoms: C_10  and  C_11
    9  A    between atoms: C_14  and  O_15
   10  A    between atoms: C_16  and  O_17
   11  A    between atoms: O_17  and  C_18
                            x       y       z     vdW  Elec       q    Type
                         _______ _______ _______ _____ _____    ______ ____

>  <TORSDO>
F 9

>  <SCORE>
-6.054

>  <RMSD_LB>
3.331

>  <RMSD_UB>
6.605

$$$$
CHEMBL80200
 OpenBabel10172500523D

 23 23  0  0  1  0  0  0  0  0999 V2000
  145.0960  140.6470  153.4460 N   0  0  0  0  0  0  0  0  0  0  0  0
  144.9650  139.4390  153.8700 C   0  0  2  0  0  3  0  0  0  0  0  0
  143.9100  138.6460  153.5400 N   0  0  0  0  0  0  0  0  0  0  0  0
  144.4260  140.9980  152.8150 H   0  0  0  0  0  0  0  0  0  0  0  0
  143.7410  137.8520  154.0980 H   0  0  0  0  0  0  0  0  0  0  0  0
  146.0820  138.6040  154.9330 S   0  0  0  0  0  0  0  0  0  0  0  0
  145.4550  138.3040  156.1020 H   0  0  0  0  0  0  0  0  0  0  0  0
  146.1890  141.5170  153.8550 C   0  0  0  0  0  2  0  0  0  0  0  0
  146.7220  142.2600  152.6270 C   0  0  0  0  0  2  0  0  0  0  0  0
  145.6110  142.5880  151.6240 C   0  0  0  0  0  2  0  0  0  0  0  0
  146.8110  141.0540  150.0330 C   0  0  0  0  0  1  0  0  0  0  0  0
  146.0660  142.3730  150.1830 C   0  0  0  0  0  2  0  0  0  0  0  0
  143.0190  138.8850  152.4320 C   0  0  0  0  0  2  0  0  0  0  0  0
  141.5880  138.5810  152.8090 C   0  0  0  0  0  0  0  0  0  0  0  0
  140.6560  138.2510  151.8200 C   0  0  0  0  0  3  0  0  0  0  0  0
  139.3210  138.0110  152.1550 C   0  0  0  0  0  3  0  0  0  0  0  0
  138.9040  138.0870  153.4870 C   0  0  0  0  0  0  0  0  0  0  0  0
  139.8200  138.3910  154.5000 C   0  0  0  0  0  0  0  0  0  0  0  0
  141.1600  138.6280  154.1460 C   0  0  0  0  0  3  0  0  0  0  0  0
  137.5820  137.8560  153.7650 O   0  0  0  0  0  0  0  0  0  0  0  0
  137.2990  137.7600  154.6530 H   0  0  0  0  0  0  0  0  0  0  0  0
  139.5920  138.5010  155.8470 O   0  0  0  0  0  0  0  0  0  0  0  0
  140.0060  137.4330  156.6890 C   0  0  0  0  0  1  0  0  0  0  0  0
  1  8  1  0  0  0  0
  1  2  1  0  0  0  0
  2  6  1  1  0  0  0
  3  2  1  0  0  0  0
  3  5  1  0  0  0  0
  4  1  1  0  0  0  0
  6  7  1  0  0  0  0
  9  8  1  0  0  0  0
 10  9  1  0  0  0  0
 11 12  1  0  0  0  0
 12 10  1  0  0  0  0
 13 14  1  0  0  0  0
 13  3  1  0  0  0  0
 14 19  1  0  0  0  0
 15 16  1  0  0  0  0
 15 14  2  0  0  0  0
 16 17  2  0  0  0  0
 17 20  1  0  0  0  0
 17 18  1  0  0  0  0
 18 22  1  0  0  0  0
 19 18  2  0  0  0  0
 20 21  1  0  0  0  0
 22 23  1  0  0  0  0
M  END
>  <MODEL>
3

>  <REMARK>
 VINA RESULT:    -6.037      2.592      3.592
 INTER + INTRA:          -9.214
 INTER:                  -8.695
 INTRA:                  -0.518
 UNBOUND:                -0.353
  Name = CHEMBL80200
  11 active torsions:
  status: ('A' for Active; 'I' for Inactive)
    1  A    between atoms: C_1  and  C_2
    2  A    between atoms: C_2  and  C_3
    3  A    between atoms: C_3  and  C_4
    4  A    between atoms: C_4  and  C_5
    5  A    between atoms: C_5  and  N_6
    6  A    between atoms: C_7  and  S_8
    7  A    between atoms: N_9  and  C_10
    8  A    between atoms: C_10  and  C_11
    9  A    between atoms: C_14  and  O_15
   10  A    between atoms: C_16  and  O_17
   11  A    between atoms: O_17  and  C_18
                            x       y       z     vdW  Elec       q    Type
                         _______ _______ _______ _____ _____    ______ ____

>  <TORSDO>
F 9

>  <SCORE>
-6.037

>  <RMSD_LB>
2.592

>  <RMSD_UB>
3.592

$$$$
CHEMBL80200
 OpenBabel10172500523D

 23 23  0  0  1  0  0  0  0  0999 V2000
  144.3210  140.0460  152.8930 N   0  0  0  0  0  0  0  0  0  0  0  0
  144.1990  138.8150  153.2470 C   0  0  2  0  0  3  0  0  0  0  0  0
  143.3480  138.4050  154.2270 N   0  0  0  0  0  0  0  0  0  0  0  0
  143.7380  140.7160  153.3170 H   0  0  0  0  0  0  0  0  0  0  0  0
  143.4960  137.5140  154.6200 H   0  0  0  0  0  0  0  0  0  0  0  0
  145.0850  137.4640  152.5670 S   0  0  0  0  0  0  0  0  0  0  0  0
  144.2510  136.7190  151.7920 H   0  0  0  0  0  0  0  0  0  0  0  0
  145.2820  140.4920  151.8940 C   0  0  0  0  0  2  0  0  0  0  0  0
  145.5750  141.9780  152.1130 C   0  0  0  0  0  2  0  0  0  0  0  0
  146.4290  142.2200  153.3630 C   0  0  0  0  0  2  0  0  0  0  0  0
  148.7690  141.8990  154.2270 C   0  0  0  0  0  1  0  0  0  0  0  0
  147.6360  141.2860  153.4150 C   0  0  0  0  0  2  0  0  0  0  0  0
  142.2430  139.1810  154.7320 C   0  0  0  0  0  2  0  0  0  0  0  0
  140.9340  138.7090  154.1440 C   0  0  0  0  0  0  0  0  0  0  0  0
  140.9120  138.0590  152.9060 C   0  0  0  0  0  3  0  0  0  0  0  0
  139.7010  137.6580  152.3360 C   0  0  0  0  0  3  0  0  0  0  0  0
  138.4960  137.8930  153.0030 C   0  0  0  0  0  0  0  0  0  0  0  0
  138.4890  138.5200  154.2540 C   0  0  0  0  0  0  0  0  0  0  0  0
  139.7160  138.9150  154.8140 C   0  0  0  0  0  3  0  0  0  0  0  0
  137.3330  137.4930  152.3970 O   0  0  0  0  0  0  0  0  0  0  0  0
  136.8980  136.7150  152.6870 H   0  0  0  0  0  0  0  0  0  0  0  0
  137.4130  138.8220  155.0470 O   0  0  0  0  0  0  0  0  0  0  0  0
  137.2770  138.1390  156.2860 C   0  0  0  0  0  1  0  0  0  0  0  0
  1  2  1  0  0  0  0
  1  4  1  0  0  0  0
  2  6  1  1  0  0  0
  2  3  1  0  0  0  0
  3  5  1  0  0  0  0
  3 13  1  0  0  0  0
  7  6  1  0  0  0  0
  8  9  1  0  0  0  0
  8  1  1  0  0  0  0
  9 10  1  0  0  0  0
 10 12  1  0  0  0  0
 12 11  1  0  0  0  0
 14 13  1  0  0  0  0
 14 19  1  0  0  0  0
 15 14  2  0  0  0  0
 16 15  1  0  0  0  0
 16 17  2  0  0  0  0
 17 18  1  0  0  0  0
 18 19  2  0  0  0  0
 18 22  1  0  0  0  0
 20 21  1  0  0  0  0
 20 17  1  0  0  0  0
 22 23  1  0  0  0  0
M  END
>  <MODEL>
4

>  <REMARK>
 VINA RESULT:    -5.967      3.004      4.255
 INTER + INTRA:          -9.112
 INTER:                  -8.792
 INTRA:                  -0.319
 UNBOUND:                -0.353
  Name = CHEMBL80200
  11 active torsions:
  status: ('A' for Active; 'I' for Inactive)
    1  A    between atoms: C_1  and  C_2
    2  A    between atoms: C_2  and  C_3
    3  A    between atoms: C_3  and  C_4
    4  A    between atoms: C_4  and  C_5
    5  A    between atoms: C_5  and  N_6
    6  A    between atoms: C_7  and  S_8
    7  A    between atoms: N_9  and  C_10
    8  A    between atoms: C_10  and  C_11
    9  A    between atoms: C_14  and  O_15
   10  A    between atoms: C_16  and  O_17
   11  A    between atoms: O_17  and  C_18
                            x       y       z     vdW  Elec       q    Type
                         _______ _______ _______ _____ _____    ______ ____

>  <TORSDO>
F 9

>  <SCORE>
-5.967

>  <RMSD_LB>
3.004

>  <RMSD_UB>
4.255

$$$$
CHEMBL80200
 OpenBabel10172500523D

 23 23  0  0  1  0  0  0  0  0999 V2000
  145.0210  139.2690  150.6990 N   0  0  0  0  0  0  0  0  0  0  0  0
  144.1020  138.8620  149.8950 C   0  0  2  0  0  3  0  0  0  0  0  0
  143.3400  137.7600  150.1330 N   0  0  0  0  0  0  0  0  0  0  0  0
  145.1470  138.7880  151.5490 H   0  0  0  0  0  0  0  0  0  0  0  0
  142.8560  137.3640  149.3720 H   0  0  0  0  0  0  0  0  0  0  0  0
  143.6700  139.6180  148.3730 S   0  0  0  0  0  0  0  0  0  0  0  0
  142.3630  139.3620  148.0950 H   0  0  0  0  0  0  0  0  0  0  0  0
  145.8820  140.4060  150.4080 C   0  0  0  0  0  2  0  0  0  0  0  0
  145.3440  141.6390  151.1400 C   0  0  0  0  0  2  0  0  0  0  0  0
  146.4280  142.3370  151.9680 C   0  0  0  0  0  2  0  0  0  0  0  0
  147.6900  141.9250  154.1040 C   0  0  0  0  0  1  0  0  0  0  0  0
  146.3160  141.9970  153.4520 C   0  0  0  0  0  2  0  0  0  0  0  0
  143.1910  137.1300  151.4210 C   0  0  0  0  0  2  0  0  0  0  0  0
  141.8730  137.5000  152.0580 C   0  0  0  0  0  0  0  0  0  0  0  0
  140.6820  137.3740  151.3360 C   0  0  0  0  0  3  0  0  0  0  0  0
  139.4630  137.7550  151.9020 C   0  0  0  0  0  3  0  0  0  0  0  0
  139.4190  138.2580  153.2060 C   0  0  0  0  0  0  0  0  0  0  0  0
  140.5920  138.3720  153.9620 C   0  0  0  0  0  0  0  0  0  0  0  0
  141.8090  137.9830  153.3770 C   0  0  0  0  0  3  0  0  0  0  0  0
  138.2020  138.6300  153.7140 O   0  0  0  0  0  0  0  0  0  0  0  0
  137.6990  139.2950  153.2860 H   0  0  0  0  0  0  0  0  0  0  0  0
  140.7340  138.8330  155.2440 O   0  0  0  0  0  0  0  0  0  0  0  0
  140.5570  137.9130  156.3130 C   0  0  0  0  0  1  0  0  0  0  0  0
  1  4  1  0  0  0  0
  2  6  1  6  0  0  0
  2  3  1  0  0  0  0
  2  1  1  0  0  0  0
  3 13  1  0  0  0  0
  5  3  1  0  0  0  0
  7  6  1  0  0  0  0
  8  1  1  0  0  0  0
  8  9  1  0  0  0  0
  9 10  1  0  0  0  0
 10 12  1  0  0  0  0
 12 11  1  0  0  0  0
 13 14  1  0  0  0  0
 14 19  1  0  0  0  0
 15 16  1  0  0  0  0
 15 14  2  0  0  0  0
 16 17  2  0  0  0  0
 17 20  1  0  0  0  0
 17 18  1  0  0  0  0
 18 22  1  0  0  0  0
 19 18  2  0  0  0  0
 21 20  1  0  0  0  0
 22 23  1  0  0  0  0
M  END
>  <MODEL>
5

>  <REMARK>
 VINA RESULT:    -5.829      3.238      4.413
 INTER + INTRA:          -8.909
 INTER:                  -8.388
 INTRA:                  -0.521
 UNBOUND:                -0.353
  Name = CHEMBL80200
  11 active torsions:
  status: ('A' for Active; 'I' for Inactive)
    1  A    between atoms: C_1  and  C_2
    2  A    between atoms: C_2  and  C_3
    3  A    between atoms: C_3  and  C_4
    4  A    between atoms: C_4  and  C_5
    5  A    between atoms: C_5  and  N_6
    6  A    between atoms: C_7  and  S_8
    7  A    between atoms: N_9  and  C_10
    8  A    between atoms: C_10  and  C_11
    9  A    between atoms: C_14  and  O_15
   10  A    between atoms: C_16  and  O_17
   11  A    between atoms: O_17  and  C_18
                            x       y       z     vdW  Elec       q    Type
                         _______ _______ _______ _____ _____    ______ ____

>  <TORSDO>
F 9

>  <SCORE>
-5.829

>  <RMSD_LB>
3.238

>  <RMSD_UB>
4.413

$$$$
CHEMBL80200
 OpenBabel10172500523D

 23 23  0  0  1  0  0  0  0  0999 V2000
  134.7060  136.4740  144.6780 N   0  0  0  0  0  0  0  0  0  0  0  0
  135.0660  137.2950  145.6020 C   0  0  2  0  0  3  0  0  0  0  0  0
  134.1890  137.8710  146.4680 N   0  0  0  0  0  0  0  0  0  0  0  0
  133.7580  136.2120  144.6270 H   0  0  0  0  0  0  0  0  0  0  0  0
  134.4880  138.6710  146.9590 H   0  0  0  0  0  0  0  0  0  0  0  0
  136.7080  137.8290  145.9090 S   0  0  0  0  0  0  0  0  0  0  0  0
  136.6950  138.8170  146.8440 H   0  0  0  0  0  0  0  0  0  0  0  0
  135.6350  135.9140  143.7080 C   0  0  0  0  0  2  0  0  0  0  0  0
  135.8200  134.4220  143.9970 C   0  0  0  0  0  2  0  0  0  0  0  0
  136.5970  133.7110  142.8840 C   0  0  0  0  0  2  0  0  0  0  0  0
  135.7990  131.5750  143.9460 C   0  0  0  0  0  1  0  0  0  0  0  0
  136.9680  132.2820  143.2750 C   0  0  0  0  0  2  0  0  0  0  0  0
  132.8520  137.3930  146.7200 C   0  0  0  0  0  2  0  0  0  0  0  0
  132.8150  136.4970  147.9360 C   0  0  0  0  0  0  0  0  0  0  0  0
  132.7130  137.0530  149.2150 C   0  0  0  0  0  3  0  0  0  0  0  0
  132.7210  136.2340  150.3470 C   0  0  0  0  0  3  0  0  0  0  0  0
  132.8200  134.8470  150.2130 C   0  0  0  0  0  0  0  0  0  0  0  0
  132.8990  134.2610  148.9440 C   0  0  0  0  0  0  0  0  0  0  0  0
  132.8880  135.0990  147.8160 C   0  0  0  0  0  3  0  0  0  0  0  0
  132.8370  134.0860  151.3530 O   0  0  0  0  0  0  0  0  0  0  0  0
  132.2060  134.2400  152.0290 H   0  0  0  0  0  0  0  0  0  0  0  0
  132.9940  132.9320  148.6260 O   0  0  0  0  0  0  0  0  0  0  0  0
  134.2840  132.3340  148.6120 C   0  0  0  0  0  1  0  0  0  0  0  0
  1  2  1  0  0  0  0
  2  6  1  6  0  0  0
  2  3  1  0  0  0  0
  3 13  1  0  0  0  0
  3  5  1  0  0  0  0
  4  1  1  0  0  0  0
  6  7  1  0  0  0  0
  8  9  1  0  0  0  0
  8  1  1  0  0  0  0
 10 12  1  0  0  0  0
 10  9  1  0  0  0  0
 12 11  1  0  0  0  0
 13 14  1  0  0  0  0
 14 15  1  0  0  0  0
 15 16  2  0  0  0  0
 17 16  1  0  0  0  0
 17 20  1  0  0  0  0
 18 17  2  0  0  0  0
 19 14  2  0  0  0  0
 19 18  1  0  0  0  0
 20 21  1  0  0  0  0
 22 18  1  0  0  0  0
 23 22  1  0  0  0  0
M  END
>  <MODEL>
6

>  <REMARK>
 VINA RESULT:    -5.733     12.072     13.193
 INTER + INTRA:          -8.768
 INTER:                  -8.215
 INTRA:                  -0.553
 UNBOUND:                -0.353
  Name = CHEMBL80200
  11 active torsions:
  status: ('A' for Active; 'I' for Inactive)
    1  A    between atoms: C_1  and  C_2
    2  A    between atoms: C_2  and  C_3
    3  A    between atoms: C_3  and  C_4
    4  A    between atoms: C_4  and  C_5
    5  A    between atoms: C_5  and  N_6
    6  A    between atoms: C_7  and  S_8
    7  A    between atoms: N_9  and  C_10
    8  A    between atoms: C_10  and  C_11
    9  A    between atoms: C_14  and  O_15
   10  A    between atoms: C_16  and  O_17
   11  A    between atoms: O_17  and  C_18
                            x       y       z     vdW  Elec       q    Type
                         _______ _______ _______ _____ _____    ______ ____

>  <TORSDO>
F 9

>  <SCORE>
-5.733

>  <RMSD_LB>
12.072

>  <RMSD_UB>
13.193

$$$$
CHEMBL80200
 OpenBabel10172500523D

 23 23  0  0  1  0  0  0  0  0999 V2000
  134.6620  134.0280  151.2390 N   0  0  0  0  0  0  0  0  0  0  0  0
  135.5670  134.9390  151.3320 C   0  0  2  0  0  3  0  0  0  0  0  0
  135.8890  135.5510  152.5040 N   0  0  0  0  0  0  0  0  0  0  0  0
  134.2160  133.7260  152.0630 H   0  0  0  0  0  0  0  0  0  0  0  0
  136.3840  136.4020  152.4560 H   0  0  0  0  0  0  0  0  0  0  0  0
  136.5280  135.5610  150.0030 S   0  0  0  0  0  0  0  0  0  0  0  0
  137.3170  134.5680  149.5110 H   0  0  0  0  0  0  0  0  0  0  0  0
  134.2710  133.4240  149.9740 C   0  0  0  0  0  2  0  0  0  0  0  0
  132.9190  134.0000  149.5440 C   0  0  0  0  0  2  0  0  0  0  0  0
  133.0200  134.7940  148.2370 C   0  0  0  0  0  2  0  0  0  0  0  0
  132.5770  137.0690  147.2610 C   0  0  0  0  0  1  0  0  0  0  0  0
  133.0450  136.3000  148.4890 C   0  0  0  0  0  2  0  0  0  0  0  0
  135.5560  135.0450  153.8110 C   0  0  0  0  0  2  0  0  0  0  0  0
  136.1700  135.8970  154.8970 C   0  0  0  0  0  0  0  0  0  0  0  0
  135.9550  135.5840  156.2430 C   0  0  0  0  0  3  0  0  0  0  0  0
  136.4840  136.3920  157.2530 C   0  0  0  0  0  3  0  0  0  0  0  0
  137.2450  137.5180  156.9290 C   0  0  0  0  0  0  0  0  0  0  0  0
  137.4970  137.8420  155.5900 C   0  0  0  0  0  0  0  0  0  0  0  0
  136.9590  137.0180  154.5870 C   0  0  0  0  0  3  0  0  0  0  0  0
  137.7320  138.2870  157.9540 O   0  0  0  0  0  0  0  0  0  0  0  0
  137.1670  138.8890  158.3970 H   0  0  0  0  0  0  0  0  0  0  0  0
  138.2200  138.8940  155.0930 O   0  0  0  0  0  0  0  0  0  0  0  0
  139.5830  138.6730  154.7540 C   0  0  0  0  0  1  0  0  0  0  0  0
  1  2  1  0  0  0  0
  1  4  1  0  0  0  0
  2  6  1  6  0  0  0
  2  3  1  0  0  0  0
  3 13  1  0  0  0  0
  5  3  1  0  0  0  0
  7  6  1  0  0  0  0
  8  1  1  0  0  0  0
  9  8  1  0  0  0  0
 10 12  1  0  0  0  0
 10  9  1  0  0  0  0
 11 12  1  0  0  0  0
 13 14  1  0  0  0  0
 14 15  1  0  0  0  0
 15 16  2  0  0  0  0
 17 16  1  0  0  0  0
 17 20  1  0  0  0  0
 18 17  2  0  0  0  0
 19 14  2  0  0  0  0
 19 18  1  0  0  0  0
 20 21  1  0  0  0  0
 22 18  1  0  0  0  0
 23 22  1  0  0  0  0
M  END
>  <MODEL>
7

>  <REMARK>
 VINA RESULT:    -5.713      8.003     11.123
 INTER + INTRA:          -8.739
 INTER:                  -8.237
 INTRA:                  -0.501
 UNBOUND:                -0.353
  Name = CHEMBL80200
  11 active torsions:
  status: ('A' for Active; 'I' for Inactive)
    1  A    between atoms: C_1  and  C_2
    2  A    between atoms: C_2  and  C_3
    3  A    between atoms: C_3  and  C_4
    4  A    between atoms: C_4  and  C_5
    5  A    between atoms: C_5  and  N_6
    6  A    between atoms: C_7  and  S_8
    7  A    between atoms: N_9  and  C_10
    8  A    between atoms: C_10  and  C_11
    9  A    between atoms: C_14  and  O_15
   10  A    between atoms: C_16  and  O_17
   11  A    between atoms: O_17  and  C_18
                            x       y       z     vdW  Elec       q    Type
                         _______ _______ _______ _____ _____    ______ ____

>  <TORSDO>
F 9

>  <SCORE>
-5.713

>  <RMSD_LB>
8.003

>  <RMSD_UB>
11.123

$$$$
CHEMBL80200
 OpenBabel10172500523D

 23 23  0  0  1  0  0  0  0  0999 V2000
  135.6030  134.5070  145.3270 N   0  0  0  0  0  0  0  0  0  0  0  0
  134.4780  135.0210  145.6870 C   0  0  2  0  0  3  0  0  0  0  0  0
  133.5830  134.3680  146.4780 N   0  0  0  0  0  0  0  0  0  0  0  0
  135.8470  133.6210  145.6790 H   0  0  0  0  0  0  0  0  0  0  0  0
  132.6560  134.7020  146.4920 H   0  0  0  0  0  0  0  0  0  0  0  0
  133.8900  136.6090  145.2360 S   0  0  0  0  0  0  0  0  0  0  0  0
  133.9260  137.4310  146.3190 H   0  0  0  0  0  0  0  0  0  0  0  0
  136.5270  135.1780  144.4250 C   0  0  0  0  0  2  0  0  0  0  0  0
  137.4920  134.1430  143.8410 C   0  0  0  0  0  2  0  0  0  0  0  0
  137.0320  132.7070  144.1130 C   0  0  0  0  0  2  0  0  0  0  0  0
  137.8450  132.5770  141.7360 C   0  0  0  0  0  1  0  0  0  0  0  0
  137.2790  131.7950  142.9130 C   0  0  0  0  0  2  0  0  0  0  0  0
  133.8940  133.2240  147.2970 C   0  0  0  0  0  2  0  0  0  0  0  0
  133.7900  133.5610  148.7650 C   0  0  0  0  0  0  0  0  0  0  0  0
  132.5420  133.5760  149.3970 C   0  0  0  0  0  3  0  0  0  0  0  0
  132.4320  133.9300  150.7440 C   0  0  0  0  0  3  0  0  0  0  0  0
  133.5730  134.2620  151.4810 C   0  0  0  0  0  0  0  0  0  0  0  0
  134.8370  134.2320  150.8810 C   0  0  0  0  0  0  0  0  0  0  0  0
  134.9300  133.8730  149.5260 C   0  0  0  0  0  3  0  0  0  0  0  0
  133.4140  134.6140  152.7960 O   0  0  0  0  0  0  0  0  0  0  0  0
  133.6140  133.9990  153.4730 H   0  0  0  0  0  0  0  0  0  0  0  0
  136.0520  134.5190  151.4460 O   0  0  0  0  0  0  0  0  0  0  0  0
  136.7320  135.6930  151.0210 C   0  0  0  0  0  1  0  0  0  0  0  0
  1  4  1  0  0  0  0
  1  2  1  0  0  0  0
  2  6  1  6  0  0  0
  2  3  1  0  0  0  0
  3  5  1  0  0  0  0
  3 13  1  0  0  0  0
  6  7  1  0  0  0  0
  8  1  1  0  0  0  0
  9 10  1  0  0  0  0
  9  8  1  0  0  0  0
 11 12  1  0  0  0  0
 12 10  1  0  0  0  0
 13 14  1  0  0  0  0
 14 15  2  0  0  0  0
 14 19  1  0  0  0  0
 15 16  1  0  0  0  0
 16 17  2  0  0  0  0
 17 20  1  0  0  0  0
 18 22  1  0  0  0  0
 18 17  1  0  0  0  0
 19 18  2  0  0  0  0
 20 21  1  0  0  0  0
 23 22  1  0  0  0  0
M  END
>  <MODEL>
8

>  <REMARK>
 VINA RESULT:    -5.661     10.258     12.879
 INTER + INTRA:          -8.662
 INTER:                  -8.168
 INTRA:                  -0.494
 UNBOUND:                -0.353
  Name = CHEMBL80200
  11 active torsions:
  status: ('A' for Active; 'I' for Inactive)
    1  A    between atoms: C_1  and  C_2
    2  A    between atoms: C_2  and  C_3
    3  A    between atoms: C_3  and  C_4
    4  A    between atoms: C_4  and  C_5
    5  A    between atoms: C_5  and  N_6
    6  A    between atoms: C_7  and  S_8
    7  A    between atoms: N_9  and  C_10
    8  A    between atoms: C_10  and  C_11
    9  A    between atoms: C_14  and  O_15
   10  A    between atoms: C_16  and  O_17
   11  A    between atoms: O_17  and  C_18
                            x       y       z     vdW  Elec       q    Type
                         _______ _______ _______ _____ _____    ______ ____

>  <TORSDO>
F 9

>  <SCORE>
-5.661

>  <RMSD_LB>
10.258

>  <RMSD_UB>
12.879

$$$$
CHEMBL80200
 OpenBabel10172500523D

 23 23  0  0  1  0  0  0  0  0999 V2000
  143.1710  140.0030  150.2380 N   0  0  0  0  0  0  0  0  0  0  0  0
  144.2910  140.0580  149.6070 C   0  0  2  0  0  3  0  0  0  0  0  0
  145.1790  141.0790  149.7560 N   0  0  0  0  0  0  0  0  0  0  0  0
  142.9680  140.7070  150.8950 H   0  0  0  0  0  0  0  0  0  0  0  0
  145.8710  141.1900  149.0630 H   0  0  0  0  0  0  0  0  0  0  0  0
  144.8740  138.8700  148.4560 S   0  0  0  0  0  0  0  0  0  0  0  0
  143.8570  138.5010  147.6320 H   0  0  0  0  0  0  0  0  0  0  0  0
  142.1920  138.9470  150.0250 C   0  0  0  0  0  2  0  0  0  0  0  0
  142.5270  137.7650  150.9380 C   0  0  0  0  0  2  0  0  0  0  0  0
  141.7560  137.8210  152.2600 C   0  0  0  0  0  2  0  0  0  0  0  0
  139.4750  138.8060  152.6510 C   0  0  0  0  0  1  0  0  0  0  0  0
  140.2540  137.6440  152.0490 C   0  0  0  0  0  2  0  0  0  0  0  0
  145.1800  142.0100  150.8550 C   0  0  0  0  0  2  0  0  0  0  0  0
  146.1100  141.5530  151.9550 C   0  0  0  0  0  0  0  0  0  0  0  0
  146.2790  142.3330  153.1030 C   0  0  0  0  0  3  0  0  0  0  0  0
  147.1690  141.9390  154.1040 C   0  0  0  0  0  3  0  0  0  0  0  0
  147.8940  140.7510  153.9750 C   0  0  0  0  0  0  0  0  0  0  0  0
  147.7270  139.9380  152.8480 C   0  0  0  0  0  0  0  0  0  0  0  0
  146.8260  140.3490  151.8510 C   0  0  0  0  0  3  0  0  0  0  0  0
  148.7650  140.4130  154.9780 O   0  0  0  0  0  0  0  0  0  0  0  0
  148.8830  140.9870  155.7100 H   0  0  0  0  0  0  0  0  0  0  0  0
  148.3440  138.7490  152.5600 O   0  0  0  0  0  0  0  0  0  0  0  0
  147.5290  137.6090  152.3210 C   0  0  0  0  0  1  0  0  0  0  0  0
  1  4  1  0  0  0  0
  2  6  1  6  0  0  0
  2  3  1  0  0  0  0
  2  1  1  0  0  0  0
  3 13  1  0  0  0  0
  5  3  1  0  0  0  0
  7  6  1  0  0  0  0
  8  1  1  0  0  0  0
  8  9  1  0  0  0  0
  9 10  1  0  0  0  0
 12 10  1  0  0  0  0
 12 11  1  0  0  0  0
 13 14  1  0  0  0  0
 14 15  1  0  0  0  0
 15 16  2  0  0  0  0
 17 16  1  0  0  0  0
 17 20  1  0  0  0  0
 18 17  2  0  0  0  0
 19 14  2  0  0  0  0
 19 18  1  0  0  0  0
 20 21  1  0  0  0  0
 22 18  1  0  0  0  0
 23 22  1  0  0  0  0
M  END
>  <MODEL>
9

>  <REMARK>
 VINA RESULT:    -5.478      3.316      6.433
 INTER + INTRA:          -8.393
 INTER:                  -8.040
 INTRA:                  -0.353
 UNBOUND:                -0.353
  Name = CHEMBL80200
  11 active torsions:
  status: ('A' for Active; 'I' for Inactive)
    1  A    between atoms: C_1  and  C_2
    2  A    between atoms: C_2  and  C_3
    3  A    between atoms: C_3  and  C_4
    4  A    between atoms: C_4  and  C_5
    5  A    between atoms: C_5  and  N_6
    6  A    between atoms: C_7  and  S_8
    7  A    between atoms: N_9  and  C_10
    8  A    between atoms: C_10  and  C_11
    9  A    between atoms: C_14  and  O_15
   10  A    between atoms: C_16  and  O_17
   11  A    between atoms: O_17  and  C_18
                            x       y       z     vdW  Elec       q    Type
                         _______ _______ _______ _____ _____    ______ ____

>  <TORSDO>
F 9

>  <SCORE>
-5.478

>  <RMSD_LB>
3.316

>  <RMSD_UB>
6.433

$$$$
