CHEMBL4782127
 OpenBabel10162523543D

 24 24  0  0  0  0  0  0  0  0999 V2000
  133.2040  135.0700  151.6890 C   0  0  0  0  0  0  0  0  0  0  0  0
  133.4200  136.2210  151.3400 O   0  0  0  0  0  0  0  0  0  0  0  0
  133.5470  134.5420  152.9330 N   0  0  0  0  0  0  0  0  0  0  0  0
  133.3560  133.6010  153.1520 H   0  0  0  0  0  0  0  0  0  0  0  0
  134.1550  135.3640  153.8380 N   0  0  0  0  0  0  0  0  0  0  0  0
  135.2200  134.9270  154.4350 C   0  0  0  0  0  3  0  0  0  0  0  0
  135.9430  135.7640  155.4270 C   0  0  0  0  0  0  0  0  0  0  0  0
  136.8200  136.7650  155.0060 C   0  0  0  0  0  3  0  0  0  0  0  0
  137.4610  137.5730  155.9490 C   0  0  0  0  0  3  0  0  0  0  0  0
  137.2420  137.3740  157.3160 C   0  0  0  0  0  0  0  0  0  0  0  0
  136.3920  136.3500  157.7560 C   0  0  0  0  0  0  0  0  0  0  0  0
  135.7400  135.5520  156.7970 C   0  0  0  0  0  3  0  0  0  0  0  0
  137.8780  138.2030  158.1980 O   0  0  0  0  0  0  0  0  0  0  0  0
  138.8090  138.2940  158.1670 H   0  0  0  0  0  0  0  0  0  0  0  0
  136.0940  135.9990  159.0480 O   0  0  0  0  0  0  0  0  0  0  0  0
  135.0940  135.0080  159.2590 C   0  0  0  0  0  1  0  0  0  0  0  0
  132.5060  134.0840  150.7550 C   0  0  0  0  0  2  0  0  0  0  0  0
  133.4990  133.3290  149.8690 C   0  0  0  0  0  2  0  0  0  0  0  0
  133.1510  133.3840  148.3780 C   0  0  0  0  0  2  0  0  0  0  0  0
  133.8240  134.5850  147.7050 C   0  0  0  0  0  2  0  0  0  0  0  0
  132.8310  135.7190  147.4440 C   0  0  0  0  0  2  0  0  0  0  0  0
  133.3890  137.0660  147.9060 C   0  0  0  0  0  2  0  0  0  0  0  0
  135.7600  137.7590  147.4160 C   0  0  0  0  0  1  0  0  0  0  0  0
  134.8540  136.9450  148.3270 C   0  0  0  0  0  2  0  0  0  0  0  0
  1  3  1  0  0  0  0
  2  1  2  0  0  0  0
  3  4  1  0  0  0  0
  3  5  1  0  0  0  0
  5  6  2  0  0  0  0
  6  7  1  0  0  0  0
  7 12  1  0  0  0  0
  8  7  2  0  0  0  0
  8  9  1  0  0  0  0
  9 10  2  0  0  0  0
 10 11  1  0  0  0  0
 10 13  1  0  0  0  0
 11 15  1  0  0  0  0
 12 11  2  0  0  0  0
 14 13  1  0  0  0  0
 15 16  1  0  0  0  0
 17  1  1  0  0  0  0
 18 17  1  0  0  0  0
 19 18  1  0  0  0  0
 20 19  1  0  0  0  0
 21 20  1  0  0  0  0
 21 22  1  0  0  0  0
 22 24  1  0  0  0  0
 23 24  1  0  0  0  0
M  END
>  <MODEL>
1

>  <REMARK>
 VINA RESULT:    -6.091      0.000      0.000
 INTER + INTRA:         -10.724
 INTER:                  -9.803
 INTRA:                  -0.922
 UNBOUND:                -0.894
  Name = CHEMBL4782127
  13 active torsions:
  status: ('A' for Active; 'I' for Inactive)
    1  A    between atoms: C_1  and  C_2
    2  A    between atoms: C_2  and  C_3
    3  A    between atoms: C_3  and  C_4
    4  A    between atoms: C_4  and  C_5
    5  A    between atoms: C_5  and  C_6
    6  A    between atoms: C_6  and  C_7
    7  A    between atoms: C_7  and  C_8
    8  A    between atoms: C_8  and  C_9
    9  A    between atoms: N_11  and  N_12
   10  A    between atoms: C_13  and  C_14
   11  A    between atoms: C_17  and  O_18
   12  A    between atoms: C_19  and  O_20
   13  A    between atoms: O_20  and  C_21
                            x       y       z     vdW  Elec       q    Type
                         _______ _______ _______ _____ _____    ______ ____

>  <TORSDO>
F 11

>  <SCORE>
-6.091

>  <RMSD_LB>
0.000

>  <RMSD_UB>
0.000

$$$$
CHEMBL4782127
 OpenBabel10162523543D

 24 24  0  0  0  0  0  0  0  0999 V2000
  134.4020  134.0340  151.7260 C   0  0  0  0  0  0  0  0  0  0  0  0
  135.5240  134.4140  151.4260 O   0  0  0  0  0  0  0  0  0  0  0  0
  133.7110  134.4310  152.8700 N   0  0  0  0  0  0  0  0  0  0  0  0
  132.8110  134.0820  153.0630 H   0  0  0  0  0  0  0  0  0  0  0  0
  134.3170  135.3170  153.7160 N   0  0  0  0  0  0  0  0  0  0  0  0
  134.9550  134.8390  154.7390 C   0  0  0  0  0  3  0  0  0  0  0  0
  135.6460  135.7370  155.7010 C   0  0  0  0  0  0  0  0  0  0  0  0
  135.7510  135.3870  157.0480 C   0  0  0  0  0  3  0  0  0  0  0  0
  136.4390  136.2200  157.9340 C   0  0  0  0  0  3  0  0  0  0  0  0
  137.0110  137.4150  157.4810 C   0  0  0  0  0  0  0  0  0  0  0  0
  136.8830  137.7970  156.1390 C   0  0  0  0  0  0  0  0  0  0  0  0
  136.2010  136.9420  155.2530 C   0  0  0  0  0  3  0  0  0  0  0  0
  137.6910  138.1850  158.3830 O   0  0  0  0  0  0  0  0  0  0  0  0
  137.5620  139.1130  158.3970 H   0  0  0  0  0  0  0  0  0  0  0  0
  137.3490  138.9400  155.5410 O   0  0  0  0  0  0  0  0  0  0  0  0
  138.3290  138.8080  154.5170 C   0  0  0  0  0  1  0  0  0  0  0  0
  133.6340  133.0650  150.8310 C   0  0  0  0  0  2  0  0  0  0  0  0
  133.5130  133.5820  149.3950 C   0  0  0  0  0  2  0  0  0  0  0  0
  134.3400  132.7790  148.3860 C   0  0  0  0  0  2  0  0  0  0  0  0
  135.5150  133.6110  147.8590 C   0  0  0  0  0  2  0  0  0  0  0  0
  135.6030  133.5640  146.3330 C   0  0  0  0  0  2  0  0  0  0  0  0
  134.3790  134.2130  145.6830 C   0  0  0  0  0  2  0  0  0  0  0  0
  133.2390  136.2830  146.5540 C   0  0  0  0  0  1  0  0  0  0  0  0
  134.4370  135.7370  145.7920 C   0  0  0  0  0  2  0  0  0  0  0  0
  1  3  1  0  0  0  0
  2  1  2  0  0  0  0
  3  4  1  0  0  0  0
  3  5  1  0  0  0  0
  5  6  2  0  0  0  0
  6  7  1  0  0  0  0
  7  8  1  0  0  0  0
  8  9  2  0  0  0  0
 10  9  1  0  0  0  0
 10 13  1  0  0  0  0
 11 10  2  0  0  0  0
 12  7  2  0  0  0  0
 12 11  1  0  0  0  0
 13 14  1  0  0  0  0
 15 11  1  0  0  0  0
 16 15  1  0  0  0  0
 17  1  1  0  0  0  0
 18 17  1  0  0  0  0
 19 18  1  0  0  0  0
 20 19  1  0  0  0  0
 21 20  1  0  0  0  0
 22 24  1  0  0  0  0
 22 21  1  0  0  0  0
 24 23  1  0  0  0  0
M  END
>  <MODEL>
2

>  <REMARK>
 VINA RESULT:    -6.047      1.518      2.675
 INTER + INTRA:         -10.653
 INTER:                  -9.827
 INTRA:                  -0.825
 UNBOUND:                -0.894
  Name = CHEMBL4782127
  13 active torsions:
  status: ('A' for Active; 'I' for Inactive)
    1  A    between atoms: C_1  and  C_2
    2  A    between atoms: C_2  and  C_3
    3  A    between atoms: C_3  and  C_4
    4  A    between atoms: C_4  and  C_5
    5  A    between atoms: C_5  and  C_6
    6  A    between atoms: C_6  and  C_7
    7  A    between atoms: C_7  and  C_8
    8  A    between atoms: C_8  and  C_9
    9  A    between atoms: N_11  and  N_12
   10  A    between atoms: C_13  and  C_14
   11  A    between atoms: C_17  and  O_18
   12  A    between atoms: C_19  and  O_20
   13  A    between atoms: O_20  and  C_21
                            x       y       z     vdW  Elec       q    Type
                         _______ _______ _______ _____ _____    ______ ____

>  <TORSDO>
F 11

>  <SCORE>
-6.047

>  <RMSD_LB>
1.518

>  <RMSD_UB>
2.675

$$$$
CHEMBL4782127
 OpenBabel10162523543D

 24 24  0  0  0  0  0  0  0  0999 V2000
  133.1700  134.9150  151.5680 C   0  0  0  0  0  0  0  0  0  0  0  0
  133.2340  136.1070  151.3040 O   0  0  0  0  0  0  0  0  0  0  0  0
  133.5870  134.3470  152.7710 N   0  0  0  0  0  0  0  0  0  0  0  0
  133.5200  133.3760  152.9210 H   0  0  0  0  0  0  0  0  0  0  0  0
  134.0920  135.1730  153.7350 N   0  0  0  0  0  0  0  0  0  0  0  0
  135.2900  134.9340  154.1720 C   0  0  0  0  0  3  0  0  0  0  0  0
  135.9120  135.7920  155.2140 C   0  0  0  0  0  0  0  0  0  0  0  0
  136.6470  136.9230  154.8560 C   0  0  0  0  0  3  0  0  0  0  0  0
  137.1920  137.7440  155.8470 C   0  0  0  0  0  3  0  0  0  0  0  0
  137.0190  137.4290  157.1990 C   0  0  0  0  0  0  0  0  0  0  0  0
  136.3130  136.2770  157.5740 C   0  0  0  0  0  0  0  0  0  0  0  0
  135.7560  135.4660  156.5670 C   0  0  0  0  0  3  0  0  0  0  0  0
  137.5540  138.2750  158.1310 O   0  0  0  0  0  0  0  0  0  0  0  0
  138.4710  138.2470  158.3160 H   0  0  0  0  0  0  0  0  0  0  0  0
  136.0810  135.8070  158.8420 O   0  0  0  0  0  0  0  0  0  0  0  0
  135.0400  136.4120  159.6000 C   0  0  0  0  0  1  0  0  0  0  0  0
  132.5970  133.9180  150.5650 C   0  0  0  0  0  2  0  0  0  0  0  0
  133.6830  133.0360  149.9450 C   0  0  0  0  0  2  0  0  0  0  0  0
  134.4540  133.7220  148.8130 C   0  0  0  0  0  2  0  0  0  0  0  0
  134.6640  132.7640  147.6360 C   0  0  0  0  0  2  0  0  0  0  0  0
  134.2540  133.4000  146.3070 C   0  0  0  0  0  2  0  0  0  0  0  0
  135.4240  133.4390  145.3220 C   0  0  0  0  0  2  0  0  0  0  0  0
  136.7990  131.3510  145.0140 C   0  0  0  0  0  1  0  0  0  0  0  0
  136.6080  132.6170  145.8340 C   0  0  0  0  0  2  0  0  0  0  0  0
  1  3  1  0  0  0  0
  2  1  2  0  0  0  0
  3  4  1  0  0  0  0
  3  5  1  0  0  0  0
  5  6  2  0  0  0  0
  6  7  1  0  0  0  0
  7 12  1  0  0  0  0
  8  7  2  0  0  0  0
  8  9  1  0  0  0  0
  9 10  2  0  0  0  0
 10 11  1  0  0  0  0
 10 13  1  0  0  0  0
 11 15  1  0  0  0  0
 12 11  2  0  0  0  0
 13 14  1  0  0  0  0
 15 16  1  0  0  0  0
 17  1  1  0  0  0  0
 18 17  1  0  0  0  0
 19 18  1  0  0  0  0
 20 19  1  0  0  0  0
 21 20  1  0  0  0  0
 22 24  1  0  0  0  0
 22 21  1  0  0  0  0
 23 24  1  0  0  0  0
M  END
>  <MODEL>
3

>  <REMARK>
 VINA RESULT:    -5.946      1.694      2.314
 INTER + INTRA:         -10.491
 INTER:                  -9.920
 INTRA:                  -0.571
 UNBOUND:                -0.894
  Name = CHEMBL4782127
  13 active torsions:
  status: ('A' for Active; 'I' for Inactive)
    1  A    between atoms: C_1  and  C_2
    2  A    between atoms: C_2  and  C_3
    3  A    between atoms: C_3  and  C_4
    4  A    between atoms: C_4  and  C_5
    5  A    between atoms: C_5  and  C_6
    6  A    between atoms: C_6  and  C_7
    7  A    between atoms: C_7  and  C_8
    8  A    between atoms: C_8  and  C_9
    9  A    between atoms: N_11  and  N_12
   10  A    between atoms: C_13  and  C_14
   11  A    between atoms: C_17  and  O_18
   12  A    between atoms: C_19  and  O_20
   13  A    between atoms: O_20  and  C_21
                            x       y       z     vdW  Elec       q    Type
                         _______ _______ _______ _____ _____    ______ ____

>  <TORSDO>
F 11

>  <SCORE>
-5.946

>  <RMSD_LB>
1.694

>  <RMSD_UB>
2.314

$$$$
CHEMBL4782127
 OpenBabel10162523543D

 24 24  0  0  0  0  0  0  0  0999 V2000
  134.8790  134.9700  154.1900 C   0  0  0  0  0  0  0  0  0  0  0  0
  135.9750  134.9180  153.6520 O   0  0  0  0  0  0  0  0  0  0  0  0
  133.6630  135.0030  153.5100 N   0  0  0  0  0  0  0  0  0  0  0  0
  132.8110  135.0550  154.0010 H   0  0  0  0  0  0  0  0  0  0  0  0
  133.6850  134.9600  152.1450 N   0  0  0  0  0  0  0  0  0  0  0  0
  133.5970  133.8000  151.5720 C   0  0  0  0  0  3  0  0  0  0  0  0
  133.6060  133.6720  150.0920 C   0  0  0  0  0  0  0  0  0  0  0  0
  134.0680  132.5030  149.4840 C   0  0  0  0  0  3  0  0  0  0  0  0
  134.0330  132.3790  148.0930 C   0  0  0  0  0  3  0  0  0  0  0  0
  133.5530  133.4280  147.3020 C   0  0  0  0  0  0  0  0  0  0  0  0
  133.1180  134.6220  147.8950 C   0  0  0  0  0  0  0  0  0  0  0  0
  133.1440  134.7290  149.2990 C   0  0  0  0  0  3  0  0  0  0  0  0
  133.5200  133.2500  145.9470 O   0  0  0  0  0  0  0  0  0  0  0  0
  134.3150  133.1000  145.4750 H   0  0  0  0  0  0  0  0  0  0  0  0
  132.6530  135.7520  147.2720 O   0  0  0  0  0  0  0  0  0  0  0  0
  132.6370  136.9660  148.0130 C   0  0  0  0  0  1  0  0  0  0  0  0
  134.7520  134.9950  155.7110 C   0  0  0  0  0  2  0  0  0  0  0  0
  136.0080  135.5530  156.3850 C   0  0  0  0  0  2  0  0  0  0  0  0
  136.2660  137.0300  156.0680 C   0  0  0  0  0  2  0  0  0  0  0  0
  137.3970  137.5850  156.9390 C   0  0  0  0  0  2  0  0  0  0  0  0
  138.7110  136.8360  156.7070 C   0  0  0  0  0  2  0  0  0  0  0  0
  139.7590  137.7370  156.0510 C   0  0  0  0  0  2  0  0  0  0  0  0
  140.3930  138.5480  153.7520 C   0  0  0  0  0  1  0  0  0  0  0  0
  139.2500  138.3050  154.7250 C   0  0  0  0  0  2  0  0  0  0  0  0
  1 17  1  0  0  0  0
  2  1  2  0  0  0  0
  3  4  1  0  0  0  0
  3  1  1  0  0  0  0
  5  3  1  0  0  0  0
  6  5  2  0  0  0  0
  7  6  1  0  0  0  0
  8  7  1  0  0  0  0
  9  8  2  0  0  0  0
 10 11  2  0  0  0  0
 10  9  1  0  0  0  0
 11 12  1  0  0  0  0
 12  7  2  0  0  0  0
 13 10  1  0  0  0  0
 14 13  1  0  0  0  0
 15 11  1  0  0  0  0
 15 16  1  0  0  0  0
 17 18  1  0  0  0  0
 19 18  1  0  0  0  0
 19 20  1  0  0  0  0
 21 20  1  0  0  0  0
 22 21  1  0  0  0  0
 23 24  1  0  0  0  0
 24 22  1  0  0  0  0
M  END
>  <MODEL>
4

>  <REMARK>
 VINA RESULT:    -5.907      2.332      8.646
 INTER + INTRA:         -10.427
 INTER:                 -10.027
 INTRA:                  -0.400
 UNBOUND:                -0.894
  Name = CHEMBL4782127
  13 active torsions:
  status: ('A' for Active; 'I' for Inactive)
    1  A    between atoms: C_1  and  C_2
    2  A    between atoms: C_2  and  C_3
    3  A    between atoms: C_3  and  C_4
    4  A    between atoms: C_4  and  C_5
    5  A    between atoms: C_5  and  C_6
    6  A    between atoms: C_6  and  C_7
    7  A    between atoms: C_7  and  C_8
    8  A    between atoms: C_8  and  C_9
    9  A    between atoms: N_11  and  N_12
   10  A    between atoms: C_13  and  C_14
   11  A    between atoms: C_17  and  O_18
   12  A    between atoms: C_19  and  O_20
   13  A    between atoms: O_20  and  C_21
                            x       y       z     vdW  Elec       q    Type
                         _______ _______ _______ _____ _____    ______ ____

>  <TORSDO>
F 11

>  <SCORE>
-5.907

>  <RMSD_LB>
2.332

>  <RMSD_UB>
8.646

$$$$
CHEMBL4782127
 OpenBabel10162523543D

 24 24  0  0  0  0  0  0  0  0999 V2000
  145.6940  137.5770  152.6970 C   0  0  0  0  0  0  0  0  0  0  0  0
  145.5250  137.1080  151.5800 O   0  0  0  0  0  0  0  0  0  0  0  0
  144.6690  137.8840  153.5900 N   0  0  0  0  0  0  0  0  0  0  0  0
  144.8680  138.2700  154.4740 H   0  0  0  0  0  0  0  0  0  0  0  0
  143.3810  137.6360  153.2060 N   0  0  0  0  0  0  0  0  0  0  0  0
  142.4490  138.4010  153.6830 C   0  0  0  0  0  3  0  0  0  0  0  0
  141.0250  138.2000  153.3070 C   0  0  0  0  0  0  0  0  0  0  0  0
  140.6880  137.6470  152.0710 C   0  0  0  0  0  3  0  0  0  0  0  0
  139.3480  137.4260  151.7460 C   0  0  0  0  0  3  0  0  0  0  0  0
  138.3360  137.7710  152.6490 C   0  0  0  0  0  0  0  0  0  0  0  0
  138.6560  138.3590  153.8810 C   0  0  0  0  0  0  0  0  0  0  0  0
  140.0110  138.5640  154.2020 C   0  0  0  0  0  3  0  0  0  0  0  0
  137.0410  137.5150  152.2940 O   0  0  0  0  0  0  0  0  0  0  0  0
  136.8160  137.4020  151.3920 H   0  0  0  0  0  0  0  0  0  0  0  0
  137.7950  138.7850  154.8600 O   0  0  0  0  0  0  0  0  0  0  0  0
  137.8470  138.1370  156.1260 C   0  0  0  0  0  1  0  0  0  0  0  0
  147.0970  137.8630  153.2240 C   0  0  0  0  0  2  0  0  0  0  0  0
  147.0850  138.2900  154.6930 C   0  0  0  0  0  2  0  0  0  0  0  0
  148.0720  139.4190  155.0100 C   0  0  0  0  0  2  0  0  0  0  0  0
  147.6610  140.7160  154.3050 C   0  0  0  0  0  2  0  0  0  0  0  0
  148.8530  141.3940  153.6270 C   0  0  0  0  0  2  0  0  0  0  0  0
  148.4750  141.9350  152.2460 C   0  0  0  0  0  2  0  0  0  0  0  0
  146.5060  142.2770  150.7130 C   0  0  0  0  0  1  0  0  0  0  0  0
  146.9780  142.2330  152.1580 C   0  0  0  0  0  2  0  0  0  0  0  0
  1 17  1  0  0  0  0
  1  3  1  0  0  0  0
  2  1  2  0  0  0  0
  3  4  1  0  0  0  0
  5  3  1  0  0  0  0
  5  6  2  0  0  0  0
  7  6  1  0  0  0  0
  7 12  1  0  0  0  0
  8  7  2  0  0  0  0
  9  8  1  0  0  0  0
  9 10  2  0  0  0  0
 10 11  1  0  0  0  0
 11 12  2  0  0  0  0
 11 15  1  0  0  0  0
 13 10  1  0  0  0  0
 14 13  1  0  0  0  0
 15 16  1  0  0  0  0
 17 18  1  0  0  0  0
 18 19  1  0  0  0  0
 20 19  1  0  0  0  0
 21 20  1  0  0  0  0
 22 21  1  0  0  0  0
 23 24  1  0  0  0  0
 24 22  1  0  0  0  0
M  END
>  <MODEL>
5

>  <REMARK>
 VINA RESULT:    -5.814      8.328     11.344
 INTER + INTRA:         -10.278
 INTER:                  -9.491
 INTRA:                  -0.787
 UNBOUND:                -0.894
  Name = CHEMBL4782127
  13 active torsions:
  status: ('A' for Active; 'I' for Inactive)
    1  A    between atoms: C_1  and  C_2
    2  A    between atoms: C_2  and  C_3
    3  A    between atoms: C_3  and  C_4
    4  A    between atoms: C_4  and  C_5
    5  A    between atoms: C_5  and  C_6
    6  A    between atoms: C_6  and  C_7
    7  A    between atoms: C_7  and  C_8
    8  A    between atoms: C_8  and  C_9
    9  A    between atoms: N_11  and  N_12
   10  A    between atoms: C_13  and  C_14
   11  A    between atoms: C_17  and  O_18
   12  A    between atoms: C_19  and  O_20
   13  A    between atoms: O_20  and  C_21
                            x       y       z     vdW  Elec       q    Type
                         _______ _______ _______ _____ _____    ______ ____

>  <TORSDO>
F 11

>  <SCORE>
-5.814

>  <RMSD_LB>
8.328

>  <RMSD_UB>
11.344

$$$$
CHEMBL4782127
 OpenBabel10162523543D

 24 24  0  0  0  0  0  0  0  0999 V2000
  134.6460  134.2360  153.2070 C   0  0  0  0  0  0  0  0  0  0  0  0
  135.7760  134.0700  152.7710 O   0  0  0  0  0  0  0  0  0  0  0  0
  133.5430  134.5970  152.4340 N   0  0  0  0  0  0  0  0  0  0  0  0
  132.6580  134.7260  152.8460 H   0  0  0  0  0  0  0  0  0  0  0  0
  133.7240  134.7660  151.0900 N   0  0  0  0  0  0  0  0  0  0  0  0
  133.0260  135.6830  150.4950 C   0  0  0  0  0  3  0  0  0  0  0  0
  133.1710  135.9340  149.0380 C   0  0  0  0  0  0  0  0  0  0  0  0
  132.5280  137.0170  148.4360 C   0  0  0  0  0  3  0  0  0  0  0  0
  132.7060  137.2650  147.0730 C   0  0  0  0  0  3  0  0  0  0  0  0
  133.5140  136.4230  146.3010 C   0  0  0  0  0  0  0  0  0  0  0  0
  134.1380  135.3110  146.8820 C   0  0  0  0  0  0  0  0  0  0  0  0
  133.9640  135.0800  148.2600 C   0  0  0  0  0  3  0  0  0  0  0  0
  133.6730  136.7200  144.9760 O   0  0  0  0  0  0  0  0  0  0  0  0
  133.3870  137.5480  144.6440 H   0  0  0  0  0  0  0  0  0  0  0  0
  134.9290  134.3730  146.2700 O   0  0  0  0  0  0  0  0  0  0  0  0
  134.2950  133.3800  145.4720 C   0  0  0  0  0  1  0  0  0  0  0  0
  134.3400  134.0440  154.6900 C   0  0  0  0  0  2  0  0  0  0  0  0
  135.0170  135.1060  155.5600 C   0  0  0  0  0  2  0  0  0  0  0  0
  134.9670  134.7910  157.0580 C   0  0  0  0  0  2  0  0  0  0  0  0
  136.0900  135.5160  157.8070 C   0  0  0  0  0  2  0  0  0  0  0  0
  137.2540  135.8680  156.8780 C   0  0  0  0  0  2  0  0  0  0  0  0
  137.7810  137.2780  157.1540 C   0  0  0  0  0  2  0  0  0  0  0  0
  137.7050  137.2030  154.6380 C   0  0  0  0  0  1  0  0  0  0  0  0
  137.9230  138.0810  155.8610 C   0  0  0  0  0  2  0  0  0  0  0  0
  1 17  1  0  0  0  0
  2  1  2  0  0  0  0
  3  4  1  0  0  0  0
  3  1  1  0  0  0  0
  5  3  1  0  0  0  0
  6  5  2  0  0  0  0
  7  6  1  0  0  0  0
  8  7  1  0  0  0  0
  9  8  2  0  0  0  0
 10 11  2  0  0  0  0
 10  9  1  0  0  0  0
 11 12  1  0  0  0  0
 12  7  2  0  0  0  0
 13 10  1  0  0  0  0
 14 13  1  0  0  0  0
 15 11  1  0  0  0  0
 16 15  1  0  0  0  0
 17 18  1  0  0  0  0
 18 19  1  0  0  0  0
 19 20  1  0  0  0  0
 21 22  1  0  0  0  0
 21 20  1  0  0  0  0
 23 24  1  0  0  0  0
 24 22  1  0  0  0  0
M  END
>  <MODEL>
6

>  <REMARK>
 VINA RESULT:    -5.806      2.609      8.875
 INTER + INTRA:         -10.263
 INTER:                  -9.531
 INTRA:                  -0.733
 UNBOUND:                -0.894
  Name = CHEMBL4782127
  13 active torsions:
  status: ('A' for Active; 'I' for Inactive)
    1  A    between atoms: C_1  and  C_2
    2  A    between atoms: C_2  and  C_3
    3  A    between atoms: C_3  and  C_4
    4  A    between atoms: C_4  and  C_5
    5  A    between atoms: C_5  and  C_6
    6  A    between atoms: C_6  and  C_7
    7  A    between atoms: C_7  and  C_8
    8  A    between atoms: C_8  and  C_9
    9  A    between atoms: N_11  and  N_12
   10  A    between atoms: C_13  and  C_14
   11  A    between atoms: C_17  and  O_18
   12  A    between atoms: C_19  and  O_20
   13  A    between atoms: O_20  and  C_21
                            x       y       z     vdW  Elec       q    Type
                         _______ _______ _______ _____ _____    ______ ____

>  <TORSDO>
F 11

>  <SCORE>
-5.806

>  <RMSD_LB>
2.609

>  <RMSD_UB>
8.875

$$$$
CHEMBL4782127
 OpenBabel10162523543D

 24 24  0  0  0  0  0  0  0  0999 V2000
  138.2620  137.7290  151.8560 C   0  0  0  0  0  0  0  0  0  0  0  0
  138.3380  138.3670  150.8160 O   0  0  0  0  0  0  0  0  0  0  0  0
  137.3570  136.6930  152.0850 N   0  0  0  0  0  0  0  0  0  0  0  0
  137.3370  136.2230  152.9500 H   0  0  0  0  0  0  0  0  0  0  0  0
  136.5000  136.3500  151.0790 N   0  0  0  0  0  0  0  0  0  0  0  0
  135.6570  135.3900  151.3020 C   0  0  0  0  0  3  0  0  0  0  0  0
  134.6870  134.9630  150.2600 C   0  0  0  0  0  0  0  0  0  0  0  0
  134.5010  133.6090  149.9760 C   0  0  0  0  0  3  0  0  0  0  0  0
  133.5560  133.2190  149.0230 C   0  0  0  0  0  3  0  0  0  0  0  0
  132.8050  134.1800  148.3380 C   0  0  0  0  0  0  0  0  0  0  0  0
  133.0050  135.5450  148.5870 C   0  0  0  0  0  0  0  0  0  0  0  0
  133.9490  135.9250  149.5600 C   0  0  0  0  0  3  0  0  0  0  0  0
  131.8790  133.7470  147.4310 O   0  0  0  0  0  0  0  0  0  0  0  0
  131.0130  133.5270  147.7140 H   0  0  0  0  0  0  0  0  0  0  0  0
  132.3840  136.6100  147.9870 O   0  0  0  0  0  0  0  0  0  0  0  0
  132.9700  137.1500  146.8080 C   0  0  0  0  0  1  0  0  0  0  0  0
  139.1960  138.0220  153.0280 C   0  0  0  0  0  2  0  0  0  0  0  0
  138.4520  138.6310  154.2180 C   0  0  0  0  0  2  0  0  0  0  0  0
  138.6090  137.8260  155.5130 C   0  0  0  0  0  2  0  0  0  0  0  0
  137.6580  136.6250  155.5270 C   0  0  0  0  0  2  0  0  0  0  0  0
  137.5540  136.0020  156.9200 C   0  0  0  0  0  2  0  0  0  0  0  0
  136.9790  136.9940  157.9340 C   0  0  0  0  0  2  0  0  0  0  0  0
  136.5190  134.7910  159.0650 C   0  0  0  0  0  1  0  0  0  0  0  0
  136.6150  136.2980  159.2460 C   0  0  0  0  0  2  0  0  0  0  0  0
  1  3  1  0  0  0  0
  1 17  1  0  0  0  0
  2  1  2  0  0  0  0
  3  4  1  0  0  0  0
  5  6  2  0  0  0  0
  5  3  1  0  0  0  0
  7  6  1  0  0  0  0
  8  7  1  0  0  0  0
  9  8  2  0  0  0  0
 10 11  2  0  0  0  0
 10  9  1  0  0  0  0
 11 12  1  0  0  0  0
 12  7  2  0  0  0  0
 13 14  1  0  0  0  0
 13 10  1  0  0  0  0
 15 11  1  0  0  0  0
 16 15  1  0  0  0  0
 17 18  1  0  0  0  0
 18 19  1  0  0  0  0
 19 20  1  0  0  0  0
 20 21  1  0  0  0  0
 21 22  1  0  0  0  0
 22 24  1  0  0  0  0
 23 24  1  0  0  0  0
M  END
>  <MODEL>
7

>  <REMARK>
 VINA RESULT:    -5.736      3.195      9.054
 INTER + INTRA:         -10.151
 INTER:                  -9.543
 INTRA:                  -0.608
 UNBOUND:                -0.894
  Name = CHEMBL4782127
  13 active torsions:
  status: ('A' for Active; 'I' for Inactive)
    1  A    between atoms: C_1  and  C_2
    2  A    between atoms: C_2  and  C_3
    3  A    between atoms: C_3  and  C_4
    4  A    between atoms: C_4  and  C_5
    5  A    between atoms: C_5  and  C_6
    6  A    between atoms: C_6  and  C_7
    7  A    between atoms: C_7  and  C_8
    8  A    between atoms: C_8  and  C_9
    9  A    between atoms: N_11  and  N_12
   10  A    between atoms: C_13  and  C_14
   11  A    between atoms: C_17  and  O_18
   12  A    between atoms: C_19  and  O_20
   13  A    between atoms: O_20  and  C_21
                            x       y       z     vdW  Elec       q    Type
                         _______ _______ _______ _____ _____    ______ ____

>  <TORSDO>
F 11

>  <SCORE>
-5.736

>  <RMSD_LB>
3.195

>  <RMSD_UB>
9.054

$$$$
CHEMBL4782127
 OpenBabel10162523543D

 24 24  0  0  0  0  0  0  0  0999 V2000
  136.0010  136.5730  149.6150 C   0  0  0  0  0  0  0  0  0  0  0  0
  135.4030  136.4680  150.6750 O   0  0  0  0  0  0  0  0  0  0  0  0
  137.3770  136.7580  149.4970 N   0  0  0  0  0  0  0  0  0  0  0  0
  137.8010  136.8460  148.6120 H   0  0  0  0  0  0  0  0  0  0  0  0
  138.1220  136.8150  150.6410 N   0  0  0  0  0  0  0  0  0  0  0  0
  139.1370  137.6220  150.6640 C   0  0  0  0  0  3  0  0  0  0  0  0
  139.9920  137.7450  151.8740 C   0  0  0  0  0  0  0  0  0  0  0  0
  141.3570  137.4610  151.8110 C   0  0  0  0  0  3  0  0  0  0  0  0
  142.1560  137.6200  152.9450 C   0  0  0  0  0  3  0  0  0  0  0  0
  141.5930  138.0500  154.1520 C   0  0  0  0  0  0  0  0  0  0  0  0
  140.2180  138.3060  154.2410 C   0  0  0  0  0  0  0  0  0  0  0  0
  139.4250  138.1560  153.0870 C   0  0  0  0  0  3  0  0  0  0  0  0
  142.4210  138.2110  155.2280 O   0  0  0  0  0  0  0  0  0  0  0  0
  142.0650  138.2380  156.0930 H   0  0  0  0  0  0  0  0  0  0  0  0
  139.5040  138.6990  155.3440 O   0  0  0  0  0  0  0  0  0  0  0  0
  139.0090  137.6880  156.2160 C   0  0  0  0  0  1  0  0  0  0  0  0
  135.2580  136.4960  148.2830 C   0  0  0  0  0  2  0  0  0  0  0  0
  133.7940  136.9190  148.4160 C   0  0  0  0  0  2  0  0  0  0  0  0
  132.8030  135.8340  147.9810 C   0  0  0  0  0  2  0  0  0  0  0  0
  133.5400  134.6250  147.3960 C   0  0  0  0  0  2  0  0  0  0  0  0
  133.2560  133.3490  148.1910 C   0  0  0  0  0  2  0  0  0  0  0  0
  132.6000  133.6650  149.5370 C   0  0  0  0  0  2  0  0  0  0  0  0
  133.3550  134.3910  151.8270 C   0  0  0  0  0  1  0  0  0  0  0  0
  133.5580  133.3940  150.6970 C   0  0  0  0  0  2  0  0  0  0  0  0
  1  2  2  0  0  0  0
  3  1  1  0  0  0  0
  3  5  1  0  0  0  0
  4  3  1  0  0  0  0
  5  6  2  0  0  0  0
  6  7  1  0  0  0  0
  7 12  1  0  0  0  0
  8  7  2  0  0  0  0
  8  9  1  0  0  0  0
  9 10  2  0  0  0  0
 10 11  1  0  0  0  0
 10 13  1  0  0  0  0
 11 15  1  0  0  0  0
 12 11  2  0  0  0  0
 13 14  1  0  0  0  0
 15 16  1  0  0  0  0
 17 18  1  0  0  0  0
 17  1  1  0  0  0  0
 19 18  1  0  0  0  0
 20 19  1  0  0  0  0
 20 21  1  0  0  0  0
 21 22  1  0  0  0  0
 22 24  1  0  0  0  0
 24 23  1  0  0  0  0
M  END
>  <MODEL>
8

>  <REMARK>
 VINA RESULT:    -5.699      3.454      4.849
 INTER + INTRA:         -10.092
 INTER:                  -9.198
 INTRA:                  -0.894
 UNBOUND:                -0.894
  Name = CHEMBL4782127
  13 active torsions:
  status: ('A' for Active; 'I' for Inactive)
    1  A    between atoms: C_1  and  C_2
    2  A    between atoms: C_2  and  C_3
    3  A    between atoms: C_3  and  C_4
    4  A    between atoms: C_4  and  C_5
    5  A    between atoms: C_5  and  C_6
    6  A    between atoms: C_6  and  C_7
    7  A    between atoms: C_7  and  C_8
    8  A    between atoms: C_8  and  C_9
    9  A    between atoms: N_11  and  N_12
   10  A    between atoms: C_13  and  C_14
   11  A    between atoms: C_17  and  O_18
   12  A    between atoms: C_19  and  O_20
   13  A    between atoms: O_20  and  C_21
                            x       y       z     vdW  Elec       q    Type
                         _______ _______ _______ _____ _____    ______ ____

>  <TORSDO>
F 11

>  <SCORE>
-5.699

>  <RMSD_LB>
3.454

>  <RMSD_UB>
4.849

$$$$
CHEMBL4782127
 OpenBabel10162523543D

 24 24  0  0  0  0  0  0  0  0999 V2000
  136.2450  132.0420  144.5660 C   0  0  0  0  0  0  0  0  0  0  0  0
  136.9240  132.0570  145.5830 O   0  0  0  0  0  0  0  0  0  0  0  0
  134.9690  132.5910  144.4590 N   0  0  0  0  0  0  0  0  0  0  0  0
  134.4660  132.5390  143.6140 H   0  0  0  0  0  0  0  0  0  0  0  0
  134.4340  133.2020  145.5570 N   0  0  0  0  0  0  0  0  0  0  0  0
  134.5170  134.4950  145.6330 C   0  0  0  0  0  3  0  0  0  0  0  0
  133.9530  135.2340  146.7920 C   0  0  0  0  0  0  0  0  0  0  0  0
  133.1700  136.3720  146.5950 C   0  0  0  0  0  3  0  0  0  0  0  0
  132.6110  137.0340  147.6920 C   0  0  0  0  0  3  0  0  0  0  0  0
  132.8460  136.5710  148.9910 C   0  0  0  0  0  0  0  0  0  0  0  0
  133.6590  135.4500  149.2080 C   0  0  0  0  0  0  0  0  0  0  0  0
  134.2040  134.7830  148.0940 C   0  0  0  0  0  3  0  0  0  0  0  0
  132.2600  137.2410  150.0290 O   0  0  0  0  0  0  0  0  0  0  0  0
  132.7820  137.5440  150.7450 H   0  0  0  0  0  0  0  0  0  0  0  0
  134.0160  134.8870  150.4070 O   0  0  0  0  0  0  0  0  0  0  0  0
  133.3980  133.6610  150.7810 C   0  0  0  0  0  1  0  0  0  0  0  0
  136.7680  131.4050  143.2820 C   0  0  0  0  0  2  0  0  0  0  0  0
  137.7070  132.3400  142.5160 C   0  0  0  0  0  2  0  0  0  0  0  0
  136.9730  133.4120  141.7050 C   0  0  0  0  0  2  0  0  0  0  0  0
  137.2870  134.8120  142.2410 C   0  0  0  0  0  2  0  0  0  0  0  0
  138.4490  134.7900  143.2360 C   0  0  0  0  0  2  0  0  0  0  0  0
  138.0200  135.3230  144.6060 C   0  0  0  0  0  2  0  0  0  0  0  0
  140.4520  135.9730  144.5290 C   0  0  0  0  0  1  0  0  0  0  0  0
  139.2240  135.8120  145.4120 C   0  0  0  0  0  2  0  0  0  0  0  0
  1  2  2  0  0  0  0
  3  1  1  0  0  0  0
  3  5  1  0  0  0  0
  4  3  1  0  0  0  0
  5  6  2  0  0  0  0
  6  7  1  0  0  0  0
  7 12  1  0  0  0  0
  8  7  2  0  0  0  0
  8  9  1  0  0  0  0
  9 10  2  0  0  0  0
 10 11  1  0  0  0  0
 10 13  1  0  0  0  0
 11 15  1  0  0  0  0
 12 11  2  0  0  0  0
 13 14  1  0  0  0  0
 15 16  1  0  0  0  0
 17  1  1  0  0  0  0
 18 17  1  0  0  0  0
 19 20  1  0  0  0  0
 19 18  1  0  0  0  0
 20 21  1  0  0  0  0
 21 22  1  0  0  0  0
 22 24  1  0  0  0  0
 23 24  1  0  0  0  0
M  END
>  <MODEL>
9

>  <REMARK>
 VINA RESULT:    -5.685      5.762      8.324
 INTER + INTRA:         -10.069
 INTER:                  -9.021
 INTRA:                  -1.047
 UNBOUND:                -0.894
  Name = CHEMBL4782127
  13 active torsions:
  status: ('A' for Active; 'I' for Inactive)
    1  A    between atoms: C_1  and  C_2
    2  A    between atoms: C_2  and  C_3
    3  A    between atoms: C_3  and  C_4
    4  A    between atoms: C_4  and  C_5
    5  A    between atoms: C_5  and  C_6
    6  A    between atoms: C_6  and  C_7
    7  A    between atoms: C_7  and  C_8
    8  A    between atoms: C_8  and  C_9
    9  A    between atoms: N_11  and  N_12
   10  A    between atoms: C_13  and  C_14
   11  A    between atoms: C_17  and  O_18
   12  A    between atoms: C_19  and  O_20
   13  A    between atoms: O_20  and  C_21
                            x       y       z     vdW  Elec       q    Type
                         _______ _______ _______ _____ _____    ______ ____

>  <TORSDO>
F 11

>  <SCORE>
-5.685

>  <RMSD_LB>
5.762

>  <RMSD_UB>
8.324

$$$$
