CHEMBL1183684
 OpenBabel10162523443D

 26 26  0  0  1  0  0  0  0  0999 V2000
  142.0380  138.6450  154.3250 C   0  0  1  0  0  3  0  0  0  0  0  0
  140.9000  138.1100  155.5020 S   0  0  0  0  0  0  0  0  0  0  0  0
  139.2990  138.5090  154.8360 C   0  0  0  0  0  1  0  0  0  0  0  0
  141.7330  139.3180  153.1900 N   0  0  0  0  0  0  0  0  0  0  0  0
  141.1670  140.1180  153.2770 H   0  0  0  0  0  0  0  0  0  0  0  0
  142.1760  138.9500  151.8460 C   0  0  0  0  0  2  0  0  0  0  0  0
  143.2710  139.8470  151.2940 C   0  0  0  0  0  2  0  0  0  0  0  0
  143.3830  139.5530  149.8170 C   0  0  0  0  0  2  0  0  0  0  0  0
  144.8030  139.7030  149.3390 C   0  0  0  0  0  2  0  0  0  0  0  0
  145.7680  139.6040  150.5080 C   0  0  0  0  0  2  0  0  0  0  0  0
  146.8650  140.6440  150.3400 C   0  0  0  0  0  2  0  0  0  0  0  0
  145.6290  142.7590  150.8130 C   0  0  0  0  0  1  0  0  0  0  0  0
  146.6940  141.8010  151.3140 C   0  0  0  0  0  2  0  0  0  0  0  0
  143.3780  138.4190  154.5980 N   0  0  0  0  0  0  0  0  0  0  0  0
  143.6930  137.4900  154.6740 H   0  0  0  0  0  0  0  0  0  0  0  0
  144.3590  139.5240  154.7800 C   0  0  0  0  0  2  0  0  0  0  0  0
  145.7730  139.2280  154.3520 C   0  0  0  0  0  0  0  0  0  0  0  0
  146.0710  138.0410  153.7060 C   0  0  0  0  0  3  0  0  0  0  0  0
  147.3670  137.7260  153.3290 C   0  0  0  0  0  3  0  0  0  0  0  0
  148.4010  138.6480  153.5720 C   0  0  0  0  0  0  0  0  0  0  0  0
  148.1290  139.8680  154.1880 C   0  0  0  0  0  0  0  0  0  0  0  0
  146.8100  140.1680  154.5690 C   0  0  0  0  0  3  0  0  0  0  0  0
  149.6590  138.2850  153.1840 O   0  0  0  0  0  0  0  0  0  0  0  0
  150.2490  138.9300  152.8460 H   0  0  0  0  0  0  0  0  0  0  0  0
  149.0100  140.8650  154.5210 O   0  0  0  0  0  0  0  0  0  0  0  0
  149.2610  141.8670  153.5480 C   0  0  0  0  0  1  0  0  0  0  0  0
  1 14  1  0  0  0  0
  1  2  1  1  0  0  0
  3  2  1  0  0  0  0
  4  5  1  0  0  0  0
  4  1  1  0  0  0  0
  6  4  1  0  0  0  0
  7  6  1  0  0  0  0
  8  7  1  0  0  0  0
  9  8  1  0  0  0  0
  9 10  1  0  0  0  0
 11 10  1  0  0  0  0
 11 13  1  0  0  0  0
 12 13  1  0  0  0  0
 14 15  1  0  0  0  0
 14 16  1  0  0  0  0
 17 22  1  0  0  0  0
 17 16  1  0  0  0  0
 18 17  2  0  0  0  0
 19 20  2  0  0  0  0
 19 18  1  0  0  0  0
 20 21  1  0  0  0  0
 21 25  1  0  0  0  0
 21 22  2  0  0  0  0
 23 20  1  0  0  0  0
 24 23  1  0  0  0  0
 26 25  1  0  0  0  0
M  END
>  <MODEL>
1

>  <REMARK>
 VINA RESULT:    -5.995      0.000      0.000
 INTER + INTRA:         -11.306
 INTER:                  -9.458
 INTRA:                  -1.847
 UNBOUND:                -0.930
  Name = CHEMBL1183684
  16 active torsions:
  status: ('A' for Active; 'I' for Inactive)
    1  A    between atoms: C_1  and  C_2
    2  A    between atoms: C_2  and  C_3
    3  A    between atoms: C_3  and  C_4
    4  A    between atoms: C_4  and  C_5
    5  A    between atoms: C_5  and  C_6
    6  A    between atoms: C_6  and  C_7
    7  A    between atoms: C_7  and  C_8
    8  A    between atoms: C_8  and  N_9
    9  A    between atoms: N_9  and  C_10
   10  A    between atoms: C_10  and  N_11
   11  A    between atoms: N_11  and  C_12
   12  A    between atoms: C_12  and  C_13
   13  A    between atoms: C_16  and  O_17
   14  A    between atoms: C_18  and  O_19
   15  A    between atoms: O_19  and  C_20
   16  A    between atoms: S_22  and  C_23
                            x       y       z     vdW  Elec       q    Type
                         _______ _______ _______ _____ _____    ______ ____

>  <TORSDO>
F 13

>  <SCORE>
-5.995

>  <RMSD_LB>
0.000

>  <RMSD_UB>
0.000

$$$$
CHEMBL1183684
 OpenBabel10162523443D

 26 26  0  0  1  0  0  0  0  0999 V2000
  146.3160  140.5720  148.5060 C   0  0  1  0  0  3  0  0  0  0  0  0
  146.3910  140.7200  146.7920 S   0  0  0  0  0  0  0  0  0  0  0  0
  146.9360  139.1340  146.1980 C   0  0  0  0  0  1  0  0  0  0  0  0
  146.7010  139.4860  149.2160 N   0  0  0  0  0  0  0  0  0  0  0  0
  147.6620  139.2740  149.2330 H   0  0  0  0  0  0  0  0  0  0  0  0
  145.8030  138.6010  149.9580 C   0  0  0  0  0  2  0  0  0  0  0  0
  144.9530  137.7070  149.0720 C   0  0  0  0  0  2  0  0  0  0  0  0
  143.5130  137.9340  149.4640 C   0  0  0  0  0  2  0  0  0  0  0  0
  143.0420  136.8850  150.4370 C   0  0  0  0  0  2  0  0  0  0  0  0
  141.5430  136.9940  150.6490 C   0  0  0  0  0  2  0  0  0  0  0  0
  141.2740  137.6300  152.0050 C   0  0  0  0  0  2  0  0  0  0  0  0
  142.1910  138.1800  154.2590 C   0  0  0  0  0  1  0  0  0  0  0  0
  142.4960  137.5560  152.9100 C   0  0  0  0  0  2  0  0  0  0  0  0
  145.8840  141.6820  149.2140 N   0  0  0  0  0  0  0  0  0  0  0  0
  144.9160  141.8240  149.3240 H   0  0  0  0  0  0  0  0  0  0  0  0
  146.8220  142.6700  149.8150 C   0  0  0  0  0  2  0  0  0  0  0  0
  147.3500  142.3300  151.1840 C   0  0  0  0  0  0  0  0  0  0  0  0
  148.7140  142.3120  151.4190 C   0  0  0  0  0  3  0  0  0  0  0  0
  149.2320  141.9710  152.6600 C   0  0  0  0  0  3  0  0  0  0  0  0
  148.3530  141.6730  153.7170 C   0  0  0  0  0  0  0  0  0  0  0  0
  146.9740  141.7170  153.5230 C   0  0  0  0  0  0  0  0  0  0  0  0
  146.4670  142.0580  152.2580 C   0  0  0  0  0  3  0  0  0  0  0  0
  148.9160  141.3400  154.9150 O   0  0  0  0  0  0  0  0  0  0  0  0
  148.4770  140.7440  155.4890 H   0  0  0  0  0  0  0  0  0  0  0  0
  145.9810  141.4340  154.4260 O   0  0  0  0  0  0  0  0  0  0  0  0
  145.4310  140.1260  154.4040 C   0  0  0  0  0  1  0  0  0  0  0  0
  1  2  1  1  0  0  0
  1 14  1  0  0  0  0
  1  4  1  0  0  0  0
  3  2  1  0  0  0  0
  4  5  1  0  0  0  0
  4  6  1  0  0  0  0
  7  8  1  0  0  0  0
  7  6  1  0  0  0  0
  8  9  1  0  0  0  0
  9 10  1  0  0  0  0
 10 11  1  0  0  0  0
 11 13  1  0  0  0  0
 13 12  1  0  0  0  0
 14 15  1  0  0  0  0
 14 16  1  0  0  0  0
 16 17  1  0  0  0  0
 17 18  2  0  0  0  0
 17 22  1  0  0  0  0
 18 19  1  0  0  0  0
 19 20  2  0  0  0  0
 20 23  1  0  0  0  0
 21 20  1  0  0  0  0
 21 25  1  0  0  0  0
 22 21  2  0  0  0  0
 23 24  1  0  0  0  0
 26 25  1  0  0  0  0
M  END
>  <MODEL>
2

>  <REMARK>
 VINA RESULT:    -5.974      3.439      5.758
 INTER + INTRA:         -11.269
 INTER:                 -10.165
 INTRA:                  -1.104
 UNBOUND:                -0.930
  Name = CHEMBL1183684
  16 active torsions:
  status: ('A' for Active; 'I' for Inactive)
    1  A    between atoms: C_1  and  C_2
    2  A    between atoms: C_2  and  C_3
    3  A    between atoms: C_3  and  C_4
    4  A    between atoms: C_4  and  C_5
    5  A    between atoms: C_5  and  C_6
    6  A    between atoms: C_6  and  C_7
    7  A    between atoms: C_7  and  C_8
    8  A    between atoms: C_8  and  N_9
    9  A    between atoms: N_9  and  C_10
   10  A    between atoms: C_10  and  N_11
   11  A    between atoms: N_11  and  C_12
   12  A    between atoms: C_12  and  C_13
   13  A    between atoms: C_16  and  O_17
   14  A    between atoms: C_18  and  O_19
   15  A    between atoms: O_19  and  C_20
   16  A    between atoms: S_22  and  C_23
                            x       y       z     vdW  Elec       q    Type
                         _______ _______ _______ _____ _____    ______ ____

>  <TORSDO>
F 13

>  <SCORE>
-5.974

>  <RMSD_LB>
3.439

>  <RMSD_UB>
5.758

$$$$
CHEMBL1183684
 OpenBabel10162523443D

 26 26  0  0  1  0  0  0  0  0999 V2000
  133.9510  136.8770  144.5070 C   0  0  1  0  0  3  0  0  0  0  0  0
  133.8940  138.3840  143.6760 S   0  0  0  0  0  0  0  0  0  0  0  0
  135.2910  138.3770  142.5740 C   0  0  0  0  0  1  0  0  0  0  0  0
  134.9330  135.9530  144.3870 N   0  0  0  0  0  0  0  0  0  0  0  0
  134.9980  135.4710  143.5300 H   0  0  0  0  0  0  0  0  0  0  0  0
  135.9030  135.6110  145.4270 C   0  0  0  0  0  2  0  0  0  0  0  0
  135.8690  134.1500  145.8410 C   0  0  0  0  0  2  0  0  0  0  0  0
  135.4360  133.3560  144.6330 C   0  0  0  0  0  2  0  0  0  0  0  0
  135.9470  131.9410  144.7010 C   0  0  0  0  0  2  0  0  0  0  0  0
  137.0070  131.7090  143.6390 C   0  0  0  0  0  2  0  0  0  0  0  0
  137.0100  132.8820  142.6710 C   0  0  0  0  0  2  0  0  0  0  0  0
  138.4870  133.8040  140.8830 C   0  0  0  0  0  1  0  0  0  0  0  0
  137.7890  132.5600  141.4030 C   0  0  0  0  0  2  0  0  0  0  0  0
  132.9380  136.6220  145.4170 N   0  0  0  0  0  0  0  0  0  0  0  0
  132.2670  135.9360  145.1970 H   0  0  0  0  0  0  0  0  0  0  0  0
  132.8210  137.3430  146.7140 C   0  0  0  0  0  2  0  0  0  0  0  0
  132.7960  136.4810  147.9490 C   0  0  0  0  0  0  0  0  0  0  0  0
  132.6860  137.0610  149.2010 C   0  0  0  0  0  3  0  0  0  0  0  0
  132.6940  136.2970  150.3580 C   0  0  0  0  0  3  0  0  0  0  0  0
  132.7760  134.8970  150.2600 C   0  0  0  0  0  0  0  0  0  0  0  0
  132.8510  134.2790  149.0130 C   0  0  0  0  0  0  0  0  0  0  0  0
  132.8490  135.0690  147.8520 C   0  0  0  0  0  3  0  0  0  0  0  0
  132.7840  134.1930  151.4300 O   0  0  0  0  0  0  0  0  0  0  0  0
  132.0020  134.1270  151.9420 H   0  0  0  0  0  0  0  0  0  0  0  0
  132.9610  132.9400  148.7360 O   0  0  0  0  0  0  0  0  0  0  0  0
  134.2690  132.4070  148.5970 C   0  0  0  0  0  1  0  0  0  0  0  0
  1  2  1  1  0  0  0
  1 14  1  0  0  0  0
  3  2  1  0  0  0  0
  4  1  1  0  0  0  0
  4  6  1  0  0  0  0
  5  4  1  0  0  0  0
  6  7  1  0  0  0  0
  8  9  1  0  0  0  0
  8  7  1  0  0  0  0
 10  9  1  0  0  0  0
 11 10  1  0  0  0  0
 12 13  1  0  0  0  0
 13 11  1  0  0  0  0
 14 16  1  0  0  0  0
 15 14  1  0  0  0  0
 16 17  1  0  0  0  0
 17 18  1  0  0  0  0
 18 19  2  0  0  0  0
 20 19  1  0  0  0  0
 20 23  1  0  0  0  0
 21 20  2  0  0  0  0
 22 17  2  0  0  0  0
 22 21  1  0  0  0  0
 23 24  1  0  0  0  0
 25 21  1  0  0  0  0
 26 25  1  0  0  0  0
M  END
>  <MODEL>
3

>  <REMARK>
 VINA RESULT:    -5.957     13.341     14.618
 INTER + INTRA:         -11.239
 INTER:                 -10.065
 INTRA:                  -1.174
 UNBOUND:                -0.930
  Name = CHEMBL1183684
  16 active torsions:
  status: ('A' for Active; 'I' for Inactive)
    1  A    between atoms: C_1  and  C_2
    2  A    between atoms: C_2  and  C_3
    3  A    between atoms: C_3  and  C_4
    4  A    between atoms: C_4  and  C_5
    5  A    between atoms: C_5  and  C_6
    6  A    between atoms: C_6  and  C_7
    7  A    between atoms: C_7  and  C_8
    8  A    between atoms: C_8  and  N_9
    9  A    between atoms: N_9  and  C_10
   10  A    between atoms: C_10  and  N_11
   11  A    between atoms: N_11  and  C_12
   12  A    between atoms: C_12  and  C_13
   13  A    between atoms: C_16  and  O_17
   14  A    between atoms: C_18  and  O_19
   15  A    between atoms: O_19  and  C_20
   16  A    between atoms: S_22  and  C_23
                            x       y       z     vdW  Elec       q    Type
                         _______ _______ _______ _____ _____    ______ ____

>  <TORSDO>
F 13

>  <SCORE>
-5.957

>  <RMSD_LB>
13.341

>  <RMSD_UB>
14.618

$$$$
CHEMBL1183684
 OpenBabel10162523443D

 26 26  0  0  1  0  0  0  0  0999 V2000
  144.1230  137.3780  150.5630 C   0  0  1  0  0  3  0  0  0  0  0  0
  144.4270  137.1570  148.8820 S   0  0  0  0  0  0  0  0  0  0  0  0
  146.0060  137.9170  148.5770 C   0  0  0  0  0  1  0  0  0  0  0  0
  144.9070  138.0820  151.4140 N   0  0  0  0  0  0  0  0  0  0  0  0
  145.8770  138.0700  151.2500 H   0  0  0  0  0  0  0  0  0  0  0  0
  144.4270  138.8560  152.5580 C   0  0  0  0  0  2  0  0  0  0  0  0
  144.9160  140.2940  152.5750 C   0  0  0  0  0  2  0  0  0  0  0  0
  144.6180  140.8790  151.2160 C   0  0  0  0  0  2  0  0  0  0  0  0
  145.3650  142.1700  151.0050 C   0  0  0  0  0  2  0  0  0  0  0  0
  146.4860  142.3050  152.0210 C   0  0  0  0  0  2  0  0  0  0  0  0
  147.8230  142.2680  151.2980 C   0  0  0  0  0  2  0  0  0  0  0  0
  148.4580  141.7890  153.6630 C   0  0  0  0  0  1  0  0  0  0  0  0
  148.9520  141.8470  152.2280 C   0  0  0  0  0  2  0  0  0  0  0  0
  142.9490  136.8420  151.0650 N   0  0  0  0  0  0  0  0  0  0  0  0
  143.0050  136.1780  151.7890 H   0  0  0  0  0  0  0  0  0  0  0  0
  141.6040  137.2290  150.5560 C   0  0  0  0  0  2  0  0  0  0  0  0
  140.5720  137.5590  151.6010 C   0  0  0  0  0  0  0  0  0  0  0  0
  139.2270  137.3730  151.3350 C   0  0  0  0  0  3  0  0  0  0  0  0
  138.2510  137.6980  152.2650 C   0  0  0  0  0  3  0  0  0  0  0  0
  138.6340  138.1930  153.5240 C   0  0  0  0  0  0  0  0  0  0  0  0
  139.9820  138.3590  153.8370 C   0  0  0  0  0  0  0  0  0  0  0  0
  140.9570  138.0300  152.8810 C   0  0  0  0  0  3  0  0  0  0  0  0
  137.6330  138.5020  154.4000 O   0  0  0  0  0  0  0  0  0  0  0  0
  136.8040  138.7960  154.0780 H   0  0  0  0  0  0  0  0  0  0  0  0
  140.5290  138.8490  154.9960 O   0  0  0  0  0  0  0  0  0  0  0  0
  140.7370  137.9300  156.0590 C   0  0  0  0  0  1  0  0  0  0  0  0
  1  2  1  6  0  0  0
  1 14  1  0  0  0  0
  1  4  1  0  0  0  0
  3  2  1  0  0  0  0
  4  6  1  0  0  0  0
  5  4  1  0  0  0  0
  6  7  1  0  0  0  0
  8  7  1  0  0  0  0
  9  8  1  0  0  0  0
  9 10  1  0  0  0  0
 11 10  1  0  0  0  0
 11 13  1  0  0  0  0
 13 12  1  0  0  0  0
 14 15  1  0  0  0  0
 16 14  1  0  0  0  0
 16 17  1  0  0  0  0
 17 22  1  0  0  0  0
 18 17  2  0  0  0  0
 18 19  1  0  0  0  0
 19 20  2  0  0  0  0
 20 21  1  0  0  0  0
 20 23  1  0  0  0  0
 21 25  1  0  0  0  0
 22 21  2  0  0  0  0
 24 23  1  0  0  0  0
 25 26  1  0  0  0  0
M  END
>  <MODEL>
4

>  <REMARK>
 VINA RESULT:    -5.929      3.963      6.534
 INTER + INTRA:         -11.191
 INTER:                 -10.196
 INTRA:                  -0.995
 UNBOUND:                -0.930
  Name = CHEMBL1183684
  16 active torsions:
  status: ('A' for Active; 'I' for Inactive)
    1  A    between atoms: C_1  and  C_2
    2  A    between atoms: C_2  and  C_3
    3  A    between atoms: C_3  and  C_4
    4  A    between atoms: C_4  and  C_5
    5  A    between atoms: C_5  and  C_6
    6  A    between atoms: C_6  and  C_7
    7  A    between atoms: C_7  and  C_8
    8  A    between atoms: C_8  and  N_9
    9  A    between atoms: N_9  and  C_10
   10  A    between atoms: C_10  and  N_11
   11  A    between atoms: N_11  and  C_12
   12  A    between atoms: C_12  and  C_13
   13  A    between atoms: C_16  and  O_17
   14  A    between atoms: C_18  and  O_19
   15  A    between atoms: O_19  and  C_20
   16  A    between atoms: S_22  and  C_23
                            x       y       z     vdW  Elec       q    Type
                         _______ _______ _______ _____ _____    ______ ____

>  <TORSDO>
F 13

>  <SCORE>
-5.929

>  <RMSD_LB>
3.963

>  <RMSD_UB>
6.534

$$$$
CHEMBL1183684
 OpenBabel10162523443D

 26 26  0  0  1  0  0  0  0  0999 V2000
  135.8490  135.8090  152.7670 C   0  0  1  0  0  3  0  0  0  0  0  0
  136.5480  136.0760  154.3190 S   0  0  0  0  0  0  0  0  0  0  0  0
  137.6420  137.4650  154.1180 C   0  0  0  0  0  1  0  0  0  0  0  0
  136.1740  136.4780  151.6360 N   0  0  0  0  0  0  0  0  0  0  0  0
  135.6560  137.2880  151.4260 H   0  0  0  0  0  0  0  0  0  0  0  0
  137.2300  136.0920  150.7010 C   0  0  0  0  0  2  0  0  0  0  0  0
  136.9550  134.7920  149.9660 C   0  0  0  0  0  2  0  0  0  0  0  0
  137.6910  134.8610  148.6500 C   0  0  0  0  0  2  0  0  0  0  0  0
  136.8750  134.2530  147.5390 C   0  0  0  0  0  2  0  0  0  0  0  0
  137.6500  133.1350  146.8650 C   0  0  0  0  0  2  0  0  0  0  0  0
  136.6700  132.1530  146.2410 C   0  0  0  0  0  2  0  0  0  0  0  0
  136.8900  131.7190  143.7930 C   0  0  0  0  0  1  0  0  0  0  0  0
  136.2420  132.5970  144.8490 C   0  0  0  0  0  2  0  0  0  0  0  0
  134.9240  134.7820  152.6630 N   0  0  0  0  0  0  0  0  0  0  0  0
  135.1550  133.9000  153.0350 H   0  0  0  0  0  0  0  0  0  0  0  0
  133.5960  134.9580  152.0130 C   0  0  0  0  0  2  0  0  0  0  0  0
  133.4880  134.4720  150.5920 C   0  0  0  0  0  0  0  0  0  0  0  0
  133.8130  133.1650  150.2760 C   0  0  0  0  0  3  0  0  0  0  0  0
  133.7540  132.6970  148.9720 C   0  0  0  0  0  3  0  0  0  0  0  0
  133.3180  133.5580  147.9480 C   0  0  0  0  0  0  0  0  0  0  0  0
  132.9490  134.8700  148.2380 C   0  0  0  0  0  0  0  0  0  0  0  0
  133.0200  135.3280  149.5640 C   0  0  0  0  0  3  0  0  0  0  0  0
  133.2840  133.0470  146.6820 O   0  0  0  0  0  0  0  0  0  0  0  0
  132.4630  132.9280  146.2470 H   0  0  0  0  0  0  0  0  0  0  0  0
  132.5280  135.8440  147.3690 O   0  0  0  0  0  0  0  0  0  0  0  0
  133.5260  136.6480  146.7580 C   0  0  0  0  0  1  0  0  0  0  0  0
  1  2  1  6  0  0  0
  3  2  1  0  0  0  0
  4  1  1  0  0  0  0
  5  4  1  0  0  0  0
  6  4  1  0  0  0  0
  7  6  1  0  0  0  0
  8  7  1  0  0  0  0
  9  8  1  0  0  0  0
 10  9  1  0  0  0  0
 11 10  1  0  0  0  0
 12 13  1  0  0  0  0
 13 11  1  0  0  0  0
 14  1  1  0  0  0  0
 14 15  1  0  0  0  0
 16 14  1  0  0  0  0
 17 16  1  0  0  0  0
 18 17  1  0  0  0  0
 19 18  2  0  0  0  0
 20 21  2  0  0  0  0
 20 19  1  0  0  0  0
 21 22  1  0  0  0  0
 22 17  2  0  0  0  0
 23 20  1  0  0  0  0
 24 23  1  0  0  0  0
 25 21  1  0  0  0  0
 26 25  1  0  0  0  0
M  END
>  <MODEL>
5

>  <REMARK>
 VINA RESULT:    -5.898      9.786     12.898
 INTER + INTRA:         -11.137
 INTER:                  -9.642
 INTRA:                  -1.495
 UNBOUND:                -0.930
  Name = CHEMBL1183684
  16 active torsions:
  status: ('A' for Active; 'I' for Inactive)
    1  A    between atoms: C_1  and  C_2
    2  A    between atoms: C_2  and  C_3
    3  A    between atoms: C_3  and  C_4
    4  A    between atoms: C_4  and  C_5
    5  A    between atoms: C_5  and  C_6
    6  A    between atoms: C_6  and  C_7
    7  A    between atoms: C_7  and  C_8
    8  A    between atoms: C_8  and  N_9
    9  A    between atoms: N_9  and  C_10
   10  A    between atoms: C_10  and  N_11
   11  A    between atoms: N_11  and  C_12
   12  A    between atoms: C_12  and  C_13
   13  A    between atoms: C_16  and  O_17
   14  A    between atoms: C_18  and  O_19
   15  A    between atoms: O_19  and  C_20
   16  A    between atoms: S_22  and  C_23
                            x       y       z     vdW  Elec       q    Type
                         _______ _______ _______ _____ _____    ______ ____

>  <TORSDO>
F 13

>  <SCORE>
-5.898

>  <RMSD_LB>
9.786

>  <RMSD_UB>
12.898

$$$$
CHEMBL1183684
 OpenBabel10162523443D

 26 26  0  0  1  0  0  0  0  0999 V2000
  143.6580  139.3170  152.4950 C   0  0  1  0  0  3  0  0  0  0  0  0
  143.7460  138.9900  154.1840 S   0  0  0  0  0  0  0  0  0  0  0  0
  145.4790  138.8250  154.5490 C   0  0  0  0  0  1  0  0  0  0  0  0
  144.7110  139.3340  151.6440 N   0  0  0  0  0  0  0  0  0  0  0  0
  145.5490  138.9210  151.9550 H   0  0  0  0  0  0  0  0  0  0  0  0
  144.7040  139.9180  150.3040 C   0  0  0  0  0  2  0  0  0  0  0  0
  145.9210  140.7760  150.0020 C   0  0  0  0  0  2  0  0  0  0  0  0
  145.6410  142.1520  150.5550 C   0  0  0  0  0  2  0  0  0  0  0  0
  146.6970  142.5620  151.5490 C   0  0  0  0  0  2  0  0  0  0  0  0
  146.3180  142.0980  152.9450 C   0  0  0  0  0  2  0  0  0  0  0  0
  147.5760  141.9810  153.7910 C   0  0  0  0  0  2  0  0  0  0  0  0
  148.4390  139.8340  152.8570 C   0  0  0  0  0  1  0  0  0  0  0  0
  148.7100  141.3190  153.0210 C   0  0  0  0  0  2  0  0  0  0  0  0
  142.3960  139.5180  151.9590 N   0  0  0  0  0  0  0  0  0  0  0  0
  142.0530  140.4380  151.8920 H   0  0  0  0  0  0  0  0  0  0  0  0
  141.5380  138.4000  151.4800 C   0  0  0  0  0  2  0  0  0  0  0  0
  140.2950  138.1280  152.2860 C   0  0  0  0  0  0  0  0  0  0  0  0
  139.1420  137.6870  151.6620 C   0  0  0  0  0  3  0  0  0  0  0  0
  137.9730  137.4590  152.3720 C   0  0  0  0  0  3  0  0  0  0  0  0
  137.9660  137.6440  153.7660 C   0  0  0  0  0  0  0  0  0  0  0  0
  139.1200  138.0530  154.4310 C   0  0  0  0  0  0  0  0  0  0  0  0
  140.2930  138.2840  153.6940 C   0  0  0  0  0  3  0  0  0  0  0  0
  136.7870  137.4100  154.4160 O   0  0  0  0  0  0  0  0  0  0  0  0
  135.9980  137.2890  153.9260 H   0  0  0  0  0  0  0  0  0  0  0  0
  139.2830  138.3040  155.7700 O   0  0  0  0  0  0  0  0  0  0  0  0
  140.4050  137.7160  156.4120 C   0  0  0  0  0  1  0  0  0  0  0  0
  1  2  1  6  0  0  0
  2  3  1  0  0  0  0
  4  5  1  0  0  0  0
  4  1  1  0  0  0  0
  6  4  1  0  0  0  0
  7  6  1  0  0  0  0
  7  8  1  0  0  0  0
  8  9  1  0  0  0  0
  9 10  1  0  0  0  0
 10 11  1  0  0  0  0
 12 13  1  0  0  0  0
 13 11  1  0  0  0  0
 14  1  1  0  0  0  0
 15 14  1  0  0  0  0
 16 14  1  0  0  0  0
 16 17  1  0  0  0  0
 17 22  1  0  0  0  0
 18 17  2  0  0  0  0
 18 19  1  0  0  0  0
 19 20  2  0  0  0  0
 20 23  1  0  0  0  0
 20 21  1  0  0  0  0
 21 25  1  0  0  0  0
 22 21  2  0  0  0  0
 24 23  1  0  0  0  0
 25 26  1  0  0  0  0
M  END
>  <MODEL>
6

>  <REMARK>
 VINA RESULT:    -5.891      3.830      6.566
 INTER + INTRA:         -11.125
 INTER:                 -10.196
 INTRA:                  -0.930
 UNBOUND:                -0.930
  Name = CHEMBL1183684
  16 active torsions:
  status: ('A' for Active; 'I' for Inactive)
    1  A    between atoms: C_1  and  C_2
    2  A    between atoms: C_2  and  C_3
    3  A    between atoms: C_3  and  C_4
    4  A    between atoms: C_4  and  C_5
    5  A    between atoms: C_5  and  C_6
    6  A    between atoms: C_6  and  C_7
    7  A    between atoms: C_7  and  C_8
    8  A    between atoms: C_8  and  N_9
    9  A    between atoms: N_9  and  C_10
   10  A    between atoms: C_10  and  N_11
   11  A    between atoms: N_11  and  C_12
   12  A    between atoms: C_12  and  C_13
   13  A    between atoms: C_16  and  O_17
   14  A    between atoms: C_18  and  O_19
   15  A    between atoms: O_19  and  C_20
   16  A    between atoms: S_22  and  C_23
                            x       y       z     vdW  Elec       q    Type
                         _______ _______ _______ _____ _____    ______ ____

>  <TORSDO>
F 13

>  <SCORE>
-5.891

>  <RMSD_LB>
3.830

>  <RMSD_UB>
6.566

$$$$
CHEMBL1183684
 OpenBabel10162523443D

 26 26  0  0  1  0  0  0  0  0999 V2000
  144.4050  137.9770  149.2360 C   0  0  1  0  0  3  0  0  0  0  0  0
  145.3760  137.2820  147.9940 S   0  0  0  0  0  0  0  0  0  0  0  0
  145.3970  138.4780  146.6770 C   0  0  0  0  0  1  0  0  0  0  0  0
  143.7340  139.1490  149.1420 N   0  0  0  0  0  0  0  0  0  0  0  0
  142.9220  139.1610  148.5860 H   0  0  0  0  0  0  0  0  0  0  0  0
  144.1200  140.3970  149.7980 C   0  0  0  0  0  2  0  0  0  0  0  0
  145.5810  140.7660  149.6050 C   0  0  0  0  0  2  0  0  0  0  0  0
  146.1830  140.9260  150.9800 C   0  0  0  0  0  2  0  0  0  0  0  0
  145.5750  142.0980  151.7060 C   0  0  0  0  0  2  0  0  0  0  0  0
  146.2810  142.3230  153.0320 C   0  0  0  0  0  2  0  0  0  0  0  0
  147.7540  141.9780  152.8790 C   0  0  0  0  0  2  0  0  0  0  0  0
  148.4010  140.0180  154.2810 C   0  0  0  0  0  1  0  0  0  0  0  0
  148.3660  141.5330  154.2000 C   0  0  0  0  0  2  0  0  0  0  0  0
  144.2540  137.2410  150.4010 N   0  0  0  0  0  0  0  0  0  0  0  0
  144.9810  136.6390  150.6760 H   0  0  0  0  0  0  0  0  0  0  0  0
  143.0360  137.3260  151.2530 C   0  0  0  0  0  2  0  0  0  0  0  0
  143.1990  138.0400  152.5690 C   0  0  0  0  0  0  0  0  0  0  0  0
  144.4560  138.4250  153.0010 C   0  0  0  0  0  3  0  0  0  0  0  0
  144.6430  139.0550  154.2220 C   0  0  0  0  0  3  0  0  0  0  0  0
  143.5270  139.3470  155.0260 C   0  0  0  0  0  0  0  0  0  0  0  0
  142.2430  139.0060  154.6040 C   0  0  0  0  0  0  0  0  0  0  0  0
  142.0740  138.3620  153.3670 C   0  0  0  0  0  3  0  0  0  0  0  0
  143.7680  139.9640  156.2200 O   0  0  0  0  0  0  0  0  0  0  0  0
  143.4600  139.5790  157.0170 H   0  0  0  0  0  0  0  0  0  0  0  0
  141.0560  139.1910  155.2660 O   0  0  0  0  0  0  0  0  0  0  0  0
  139.8600  139.0100  154.5230 C   0  0  0  0  0  1  0  0  0  0  0  0
  1  2  1  6  0  0  0
  1 14  1  0  0  0  0
  3  2  1  0  0  0  0
  4  1  1  0  0  0  0
  4  6  1  0  0  0  0
  5  4  1  0  0  0  0
  7  6  1  0  0  0  0
  7  8  1  0  0  0  0
  8  9  1  0  0  0  0
  9 10  1  0  0  0  0
 11 10  1  0  0  0  0
 11 13  1  0  0  0  0
 13 12  1  0  0  0  0
 14 15  1  0  0  0  0
 14 16  1  0  0  0  0
 16 17  1  0  0  0  0
 17 18  2  0  0  0  0
 17 22  1  0  0  0  0
 18 19  1  0  0  0  0
 19 20  2  0  0  0  0
 20 23  1  0  0  0  0
 21 20  1  0  0  0  0
 21 25  1  0  0  0  0
 22 21  2  0  0  0  0
 23 24  1  0  0  0  0
 26 25  1  0  0  0  0
M  END
>  <MODEL>
7

>  <REMARK>
 VINA RESULT:    -5.865      3.305      5.516
 INTER + INTRA:         -11.081
 INTER:                  -9.247
 INTRA:                  -1.834
 UNBOUND:                -0.930
  Name = CHEMBL1183684
  16 active torsions:
  status: ('A' for Active; 'I' for Inactive)
    1  A    between atoms: C_1  and  C_2
    2  A    between atoms: C_2  and  C_3
    3  A    between atoms: C_3  and  C_4
    4  A    between atoms: C_4  and  C_5
    5  A    between atoms: C_5  and  C_6
    6  A    between atoms: C_6  and  C_7
    7  A    between atoms: C_7  and  C_8
    8  A    between atoms: C_8  and  N_9
    9  A    between atoms: N_9  and  C_10
   10  A    between atoms: C_10  and  N_11
   11  A    between atoms: N_11  and  C_12
   12  A    between atoms: C_12  and  C_13
   13  A    between atoms: C_16  and  O_17
   14  A    between atoms: C_18  and  O_19
   15  A    between atoms: O_19  and  C_20
   16  A    between atoms: S_22  and  C_23
                            x       y       z     vdW  Elec       q    Type
                         _______ _______ _______ _____ _____    ______ ____

>  <TORSDO>
F 13

>  <SCORE>
-5.865

>  <RMSD_LB>
3.305

>  <RMSD_UB>
5.516

$$$$
CHEMBL1183684
 OpenBabel10162523443D

 26 26  0  0  1  0  0  0  0  0999 V2000
  137.6660  136.8720  148.8990 C   0  0  1  0  0  3  0  0  0  0  0  0
  137.8300  138.3910  149.6950 S   0  0  0  0  0  0  0  0  0  0  0  0
  138.0160  139.5940  148.3970 C   0  0  0  0  0  1  0  0  0  0  0  0
  137.7670  136.6730  147.5640 N   0  0  0  0  0  0  0  0  0  0  0  0
  137.4760  137.4060  146.9740 H   0  0  0  0  0  0  0  0  0  0  0  0
  138.2710  135.4560  146.9270 C   0  0  0  0  0  2  0  0  0  0  0  0
  137.1820  134.5750  146.3410 C   0  0  0  0  0  2  0  0  0  0  0  0
  137.3320  133.2090  146.9670 C   0  0  0  0  0  2  0  0  0  0  0  0
  136.3240  132.2400  146.4050 C   0  0  0  0  0  2  0  0  0  0  0  0
  135.7310  132.7820  145.1160 C   0  0  0  0  0  2  0  0  0  0  0  0
  135.7860  131.7010  144.0470 C   0  0  0  0  0  2  0  0  0  0  0  0
  137.4380  133.0960  142.8010 C   0  0  0  0  0  1  0  0  0  0  0  0
  137.1220  131.7040  143.3170 C   0  0  0  0  0  2  0  0  0  0  0  0
  137.4770  135.7590  149.7020 N   0  0  0  0  0  0  0  0  0  0  0  0
  138.2180  135.1190  149.8030 H   0  0  0  0  0  0  0  0  0  0  0  0
  136.1990  135.4910  150.4180 C   0  0  0  0  0  2  0  0  0  0  0  0
  135.0940  134.8870  149.5930 C   0  0  0  0  0  0  0  0  0  0  0  0
  134.7370  133.5620  149.7700 C   0  0  0  0  0  3  0  0  0  0  0  0
  133.7460  132.9680  149.0030 C   0  0  0  0  0  3  0  0  0  0  0  0
  133.0580  133.7380  148.0480 C   0  0  0  0  0  0  0  0  0  0  0  0
  133.3680  135.0850  147.8700 C   0  0  0  0  0  0  0  0  0  0  0  0
  134.3790  135.6680  148.6510 C   0  0  0  0  0  3  0  0  0  0  0  0
  132.0950  133.1020  147.3170 O   0  0  0  0  0  0  0  0  0  0  0  0
  132.3320  132.4150  146.7270 H   0  0  0  0  0  0  0  0  0  0  0  0
  132.8210  135.9690  146.9750 O   0  0  0  0  0  0  0  0  0  0  0  0
  132.8300  137.3440  147.3290 C   0  0  0  0  0  1  0  0  0  0  0  0
  1  2  1  1  0  0  0
  1 14  1  0  0  0  0
  3  2  1  0  0  0  0
  4  1  1  0  0  0  0
  5  4  1  0  0  0  0
  6  4  1  0  0  0  0
  7  6  1  0  0  0  0
  7  8  1  0  0  0  0
  9  8  1  0  0  0  0
 10  9  1  0  0  0  0
 11 10  1  0  0  0  0
 12 13  1  0  0  0  0
 13 11  1  0  0  0  0
 14 15  1  0  0  0  0
 14 16  1  0  0  0  0
 17 18  1  0  0  0  0
 17 16  1  0  0  0  0
 19 18  2  0  0  0  0
 20 19  1  0  0  0  0
 21 20  2  0  0  0  0
 21 22  1  0  0  0  0
 22 17  2  0  0  0  0
 23 20  1  0  0  0  0
 24 23  1  0  0  0  0
 25 26  1  0  0  0  0
 25 21  1  0  0  0  0
M  END
>  <MODEL>
8

>  <REMARK>
 VINA RESULT:    -5.817     10.212     13.177
 INTER + INTRA:         -10.998
 INTER:                  -8.954
 INTRA:                  -2.044
 UNBOUND:                -0.930
  Name = CHEMBL1183684
  16 active torsions:
  status: ('A' for Active; 'I' for Inactive)
    1  A    between atoms: C_1  and  C_2
    2  A    between atoms: C_2  and  C_3
    3  A    between atoms: C_3  and  C_4
    4  A    between atoms: C_4  and  C_5
    5  A    between atoms: C_5  and  C_6
    6  A    between atoms: C_6  and  C_7
    7  A    between atoms: C_7  and  C_8
    8  A    between atoms: C_8  and  N_9
    9  A    between atoms: N_9  and  C_10
   10  A    between atoms: C_10  and  N_11
   11  A    between atoms: N_11  and  C_12
   12  A    between atoms: C_12  and  C_13
   13  A    between atoms: C_16  and  O_17
   14  A    between atoms: C_18  and  O_19
   15  A    between atoms: O_19  and  C_20
   16  A    between atoms: S_22  and  C_23
                            x       y       z     vdW  Elec       q    Type
                         _______ _______ _______ _____ _____    ______ ____

>  <TORSDO>
F 13

>  <SCORE>
-5.817

>  <RMSD_LB>
10.212

>  <RMSD_UB>
13.177

$$$$
CHEMBL1183684
 OpenBabel10162523443D

 26 26  0  0  1  0  0  0  0  0999 V2000
  146.7220  136.6810  149.4400 C   0  0  1  0  0  3  0  0  0  0  0  0
  147.7990  136.1940  148.1880 S   0  0  0  0  0  0  0  0  0  0  0  0
  147.0580  136.7600  146.6730 C   0  0  0  0  0  1  0  0  0  0  0  0
  145.5210  137.2780  149.2530 N   0  0  0  0  0  0  0  0  0  0  0  0
  144.8160  136.7480  148.8160 H   0  0  0  0  0  0  0  0  0  0  0  0
  145.1890  138.6460  149.6460 C   0  0  0  0  0  2  0  0  0  0  0  0
  146.0590  139.7030  148.9870 C   0  0  0  0  0  2  0  0  0  0  0  0
  146.7710  140.4440  150.0940 C   0  0  0  0  0  2  0  0  0  0  0  0
  145.9170  141.5600  150.6360 C   0  0  0  0  0  2  0  0  0  0  0  0
  146.6160  142.2450  151.7960 C   0  0  0  0  0  2  0  0  0  0  0  0
  148.0880  141.8640  151.7890 C   0  0  0  0  0  2  0  0  0  0  0  0
  147.5230  141.8600  154.2190 C   0  0  0  0  0  1  0  0  0  0  0  0
  148.5910  141.5400  153.1890 C   0  0  0  0  0  2  0  0  0  0  0  0
  147.0930  136.3780  150.7410 N   0  0  0  0  0  0  0  0  0  0  0  0
  146.6840  135.5960  151.1780 H   0  0  0  0  0  0  0  0  0  0  0  0
  148.0840  137.1860  151.5040 C   0  0  0  0  0  2  0  0  0  0  0  0
  147.6510  137.6370  152.8750 C   0  0  0  0  0  0  0  0  0  0  0  0
  148.5810  137.7570  153.8930 C   0  0  0  0  0  3  0  0  0  0  0  0
  148.2090  138.1390  155.1740 C   0  0  0  0  0  3  0  0  0  0  0  0
  146.8630  138.4500  155.4380 C   0  0  0  0  0  0  0  0  0  0  0  0
  145.9090  138.3740  154.4260 C   0  0  0  0  0  0  0  0  0  0  0  0
  146.3020  137.9800  153.1360 C   0  0  0  0  0  3  0  0  0  0  0  0
  146.5520  138.8150  156.7170 O   0  0  0  0  0  0  0  0  0  0  0  0
  145.6590  138.8060  157.0020 H   0  0  0  0  0  0  0  0  0  0  0  0
  144.5610  138.6150  154.5120 O   0  0  0  0  0  0  0  0  0  0  0  0
  144.0730  139.8130  153.9270 C   0  0  0  0  0  1  0  0  0  0  0  0
  1  2  1  6  0  0  0
  1 14  1  0  0  0  0
  3  2  1  0  0  0  0
  4  1  1  0  0  0  0
  4  6  1  0  0  0  0
  5  4  1  0  0  0  0
  7  6  1  0  0  0  0
  7  8  1  0  0  0  0
  8  9  1  0  0  0  0
  9 10  1  0  0  0  0
 11 10  1  0  0  0  0
 11 13  1  0  0  0  0
 13 12  1  0  0  0  0
 14 15  1  0  0  0  0
 14 16  1  0  0  0  0
 16 17  1  0  0  0  0
 17 22  2  0  0  0  0
 17 18  1  0  0  0  0
 18 19  2  0  0  0  0
 19 20  1  0  0  0  0
 20 23  1  0  0  0  0
 21 25  1  0  0  0  0
 21 20  2  0  0  0  0
 22 21  1  0  0  0  0
 23 24  1  0  0  0  0
 26 25  1  0  0  0  0
M  END
>  <MODEL>
9

>  <REMARK>
 VINA RESULT:    -5.766      3.472      5.032
 INTER + INTRA:         -10.909
 INTER:                  -8.697
 INTRA:                  -2.212
 UNBOUND:                -0.930
  Name = CHEMBL1183684
  16 active torsions:
  status: ('A' for Active; 'I' for Inactive)
    1  A    between atoms: C_1  and  C_2
    2  A    between atoms: C_2  and  C_3
    3  A    between atoms: C_3  and  C_4
    4  A    between atoms: C_4  and  C_5
    5  A    between atoms: C_5  and  C_6
    6  A    between atoms: C_6  and  C_7
    7  A    between atoms: C_7  and  C_8
    8  A    between atoms: C_8  and  N_9
    9  A    between atoms: N_9  and  C_10
   10  A    between atoms: C_10  and  N_11
   11  A    between atoms: N_11  and  C_12
   12  A    between atoms: C_12  and  C_13
   13  A    between atoms: C_16  and  O_17
   14  A    between atoms: C_18  and  O_19
   15  A    between atoms: O_19  and  C_20
   16  A    between atoms: S_22  and  C_23
                            x       y       z     vdW  Elec       q    Type
                         _______ _______ _______ _____ _____    ______ ____

>  <TORSDO>
F 13

>  <SCORE>
-5.766

>  <RMSD_LB>
3.472

>  <RMSD_UB>
5.032

$$$$
