CHEMBL80744
 OpenBabel10162523483D

 23 24  0  0  0  0  0  0  0  0999 V2000
  134.8690  134.4670  152.4520 N   0  0  0  0  0  0  0  0  0  0  0  0
  135.0040  135.7270  152.9980 C   0  0  0  0  0  0  0  0  0  0  0  0
  134.0610  136.5090  153.1090 O   0  0  0  0  0  0  0  0  0  0  0  0
  135.6630  133.8880  152.3830 H   0  0  0  0  0  0  0  0  0  0  0  0
  133.5950  133.9730  151.9810 C   0  0  0  0  0  2  0  0  0  0  0  0
  132.9900  134.6430  148.2720 C   0  0  0  0  0  0  0  0  0  0  0  0
  133.0510  134.8030  149.6610 C   0  0  0  0  0  3  0  0  0  0  0  0
  133.5740  133.7890  150.4840 C   0  0  0  0  0  0  0  0  0  0  0  0
  134.0650  132.6170  149.8960 C   0  0  0  0  0  3  0  0  0  0  0  0
  134.0120  132.4470  148.5120 C   0  0  0  0  0  3  0  0  0  0  0  0
  133.4730  133.4540  147.7110 C   0  0  0  0  0  0  0  0  0  0  0  0
  132.8380  136.9280  147.6120 C   0  0  0  0  0  1  0  0  0  0  0  0
  132.4850  135.5680  147.3960 O   0  0  0  0  0  0  0  0  0  0  0  0
  133.4100  133.2800  146.3530 O   0  0  0  0  0  0  0  0  0  0  0  0
  133.5530  132.4320  145.9820 H   0  0  0  0  0  0  0  0  0  0  0  0
  136.4040  136.0570  153.4910 C   0  0  0  0  0  2  0  0  0  0  0  0
  136.5440  136.4470  154.9470 C   0  0  0  0  0  0  0  0  0  0  0  0
  137.1620  137.6300  155.3760 C   0  0  0  0  0  3  0  0  0  0  0  0
  137.2720  137.9240  156.7390 C   0  0  0  0  0  3  0  0  0  0  0  0
  136.7710  137.0350  157.6870 C   0  0  0  0  0  0  0  0  0  0  0  0
  136.9230  137.3920  159.3630 Cl  0  0  0  0  0  0  0  0  0  0  0  0
  136.1490  135.8580  157.2820 C   0  0  0  0  0  3  0  0  0  0  0  0
  136.0350  135.5670  155.9200 C   0  0  0  0  0  3  0  0  0  0  0  0
  1  2  1  0  0  0  0
  2  3  2  0  0  0  0
  2 16  1  0  0  0  0
  4  1  1  0  0  0  0
  5  1  1  0  0  0  0
  6  7  1  0  0  0  0
  7  8  2  0  0  0  0
  8  5  1  0  0  0  0
  9  8  1  0  0  0  0
 10  9  2  0  0  0  0
 11  6  2  0  0  0  0
 11 10  1  0  0  0  0
 13 12  1  0  0  0  0
 13  6  1  0  0  0  0
 14 11  1  0  0  0  0
 15 14  1  0  0  0  0
 16 17  1  0  0  0  0
 17 18  2  0  0  0  0
 17 23  1  0  0  0  0
 18 19  1  0  0  0  0
 19 20  2  0  0  0  0
 20 21  1  0  0  0  0
 22 20  1  0  0  0  0
 23 22  2  0  0  0  0
M  END
>  <MODEL>
1

>  <REMARK>
 VINA RESULT:    -7.363      0.000      0.000
 INTER + INTRA:         -10.188
 INTER:                  -9.703
 INTRA:                  -0.486
 UNBOUND:                -0.458
  Name = CHEMBL80744
  7 active torsions:
  status: ('A' for Active; 'I' for Inactive)
    1  A    between atoms: C_1  and  O_2
    2  A    between atoms: O_2  and  C_3
    3  A    between atoms: C_5  and  C_6
    4  A    between atoms: C_6  and  N_7
    5  A    between atoms: C_8  and  C_10
    6  A    between atoms: C_10  and  C_11
    7  A    between atoms: C_20  and  O_21
                            x       y       z     vdW  Elec       q    Type
                         _______ _______ _______ _____ _____    ______ ____

>  <TORSDO>
F 6

>  <SCORE>
-7.363

>  <RMSD_LB>
0.000

>  <RMSD_UB>
0.000

$$$$
CHEMBL80744
 OpenBabel10162523483D

 23 24  0  0  0  0  0  0  0  0999 V2000
  138.3560  137.4000  155.5540 N   0  0  0  0  0  0  0  0  0  0  0  0
  139.4470  138.1840  155.2400 C   0  0  0  0  0  0  0  0  0  0  0  0
  140.3990  138.3350  156.0030 O   0  0  0  0  0  0  0  0  0  0  0  0
  137.6190  137.3240  154.9040 H   0  0  0  0  0  0  0  0  0  0  0  0
  138.2650  136.6870  156.8070 C   0  0  0  0  0  2  0  0  0  0  0  0
  134.9770  134.9680  155.9080 C   0  0  0  0  0  0  0  0  0  0  0  0
  136.2070  135.6260  155.8010 C   0  0  0  0  0  3  0  0  0  0  0  0
  136.9580  135.9460  156.9470 C   0  0  0  0  0  0  0  0  0  0  0  0
  136.4760  135.5710  158.2070 C   0  0  0  0  0  3  0  0  0  0  0  0
  135.2500  134.9130  158.3250 C   0  0  0  0  0  3  0  0  0  0  0  0
  134.5090  134.6210  157.1810 C   0  0  0  0  0  0  0  0  0  0  0  0
  133.8280  135.6680  153.9400 C   0  0  0  0  0  1  0  0  0  0  0  0
  134.1720  134.6320  154.8500 O   0  0  0  0  0  0  0  0  0  0  0  0
  133.3010  133.9850  157.3000 O   0  0  0  0  0  0  0  0  0  0  0  0
  132.5150  134.4180  157.0310 H   0  0  0  0  0  0  0  0  0  0  0  0
  139.3980  138.8150  153.8570 C   0  0  0  0  0  2  0  0  0  0  0  0
  140.2650  138.1880  152.7870 C   0  0  0  0  0  0  0  0  0  0  0  0
  139.7730  137.7470  151.5500 C   0  0  0  0  0  3  0  0  0  0  0  0
  140.6270  137.1620  150.6100 C   0  0  0  0  0  3  0  0  0  0  0  0
  141.9800  137.0070  150.8980 C   0  0  0  0  0  0  0  0  0  0  0  0
  143.0240  136.2720  149.7450 Cl  0  0  0  0  0  0  0  0  0  0  0  0
  142.4910  137.4430  152.1160 C   0  0  0  0  0  3  0  0  0  0  0  0
  141.6380  138.0310  153.0540 C   0  0  0  0  0  3  0  0  0  0  0  0
  1  5  1  0  0  0  0
  2  1  1  0  0  0  0
  2  3  2  0  0  0  0
  4  1  1  0  0  0  0
  5  8  1  0  0  0  0
  6 11  1  0  0  0  0
  7  6  2  0  0  0  0
  7  8  1  0  0  0  0
  8  9  2  0  0  0  0
  9 10  1  0  0  0  0
 11 14  1  0  0  0  0
 11 10  2  0  0  0  0
 12 13  1  0  0  0  0
 13  6  1  0  0  0  0
 15 14  1  0  0  0  0
 16  2  1  0  0  0  0
 17 23  1  0  0  0  0
 17 16  1  0  0  0  0
 18 17  2  0  0  0  0
 19 20  2  0  0  0  0
 19 18  1  0  0  0  0
 20 22  1  0  0  0  0
 21 20  1  0  0  0  0
 22 23  2  0  0  0  0
M  END
>  <MODEL>
2

>  <REMARK>
 VINA RESULT:    -7.268      5.110      7.760
 INTER + INTRA:         -10.063
 INTER:                  -9.727
 INTRA:                  -0.336
 UNBOUND:                -0.458
  Name = CHEMBL80744
  7 active torsions:
  status: ('A' for Active; 'I' for Inactive)
    1  A    between atoms: C_1  and  O_2
    2  A    between atoms: O_2  and  C_3
    3  A    between atoms: C_5  and  C_6
    4  A    between atoms: C_6  and  N_7
    5  A    between atoms: C_8  and  C_10
    6  A    between atoms: C_10  and  C_11
    7  A    between atoms: C_20  and  O_21
                            x       y       z     vdW  Elec       q    Type
                         _______ _______ _______ _____ _____    ______ ____

>  <TORSDO>
F 6

>  <SCORE>
-7.268

>  <RMSD_LB>
5.110

>  <RMSD_UB>
7.760

$$$$
CHEMBL80744
 OpenBabel10162523483D

 23 24  0  0  0  0  0  0  0  0999 V2000
  143.7300  139.6640  153.9730 N   0  0  0  0  0  0  0  0  0  0  0  0
  143.4300  138.3190  154.0280 C   0  0  0  0  0  0  0  0  0  0  0  0
  144.2920  137.4430  153.9860 O   0  0  0  0  0  0  0  0  0  0  0  0
  142.9950  140.3190  154.0030 H   0  0  0  0  0  0  0  0  0  0  0  0
  145.0910  140.1390  153.8750 C   0  0  0  0  0  2  0  0  0  0  0  0
  145.0840  140.7370  150.1050 C   0  0  0  0  0  0  0  0  0  0  0  0
  144.8010  140.2080  151.3690 C   0  0  0  0  0  3  0  0  0  0  0  0
  145.3850  140.7500  152.5280 C   0  0  0  0  0  0  0  0  0  0  0  0
  146.2400  141.8540  152.4100 C   0  0  0  0  0  3  0  0  0  0  0  0
  146.5290  142.3910  151.1550 C   0  0  0  0  0  3  0  0  0  0  0  0
  145.9560  141.8290  150.0140 C   0  0  0  0  0  0  0  0  0  0  0  0
  143.2180  139.8390  148.9250 C   0  0  0  0  0  1  0  0  0  0  0  0
  144.5740  140.2640  148.9240 O   0  0  0  0  0  0  0  0  0  0  0  0
  146.2490  142.3500  148.7810 O   0  0  0  0  0  0  0  0  0  0  0  0
  147.0390  142.8370  148.6540 H   0  0  0  0  0  0  0  0  0  0  0  0
  141.9510  138.0040  154.1860 C   0  0  0  0  0  2  0  0  0  0  0  0
  141.1550  137.7950  152.9150 C   0  0  0  0  0  0  0  0  0  0  0  0
  139.7730  138.0100  152.8230 C   0  0  0  0  0  3  0  0  0  0  0  0
  139.0940  137.7830  151.6210 C   0  0  0  0  0  3  0  0  0  0  0  0
  139.7900  137.3340  150.5010 C   0  0  0  0  0  0  0  0  0  0  0  0
  138.9490  137.0410  149.0290 Cl  0  0  0  0  0  0  0  0  0  0  0  0
  141.1630  137.1200  150.5700 C   0  0  0  0  0  3  0  0  0  0  0  0
  141.8410  137.3500  151.7700 C   0  0  0  0  0  3  0  0  0  0  0  0
  1  4  1  0  0  0  0
  1  2  1  0  0  0  0
  2 16  1  0  0  0  0
  3  2  2  0  0  0  0
  5  1  1  0  0  0  0
  6  7  1  0  0  0  0
  7  8  2  0  0  0  0
  8  5  1  0  0  0  0
  9  8  1  0  0  0  0
 10  9  2  0  0  0  0
 11  6  2  0  0  0  0
 11 10  1  0  0  0  0
 13 12  1  0  0  0  0
 13  6  1  0  0  0  0
 14 11  1  0  0  0  0
 15 14  1  0  0  0  0
 17 16  1  0  0  0  0
 18 17  1  0  0  0  0
 19 18  2  0  0  0  0
 20 22  2  0  0  0  0
 20 19  1  0  0  0  0
 21 20  1  0  0  0  0
 22 23  1  0  0  0  0
 23 17  2  0  0  0  0
M  END
>  <MODEL>
3

>  <REMARK>
 VINA RESULT:    -6.903      8.873     11.326
 INTER + INTRA:          -9.581
 INTER:                  -8.892
 INTRA:                  -0.688
 UNBOUND:                -0.458
  Name = CHEMBL80744
  7 active torsions:
  status: ('A' for Active; 'I' for Inactive)
    1  A    between atoms: C_1  and  O_2
    2  A    between atoms: O_2  and  C_3
    3  A    between atoms: C_5  and  C_6
    4  A    between atoms: C_6  and  N_7
    5  A    between atoms: C_8  and  C_10
    6  A    between atoms: C_10  and  C_11
    7  A    between atoms: C_20  and  O_21
                            x       y       z     vdW  Elec       q    Type
                         _______ _______ _______ _____ _____    ______ ____

>  <TORSDO>
F 6

>  <SCORE>
-6.903

>  <RMSD_LB>
8.873

>  <RMSD_UB>
11.326

$$$$
CHEMBL80744
 OpenBabel10162523483D

 23 24  0  0  0  0  0  0  0  0999 V2000
  144.7490  139.1910  150.0280 N   0  0  0  0  0  0  0  0  0  0  0  0
  144.9570  137.8280  150.0000 C   0  0  0  0  0  0  0  0  0  0  0  0
  146.0630  137.3270  149.8060 O   0  0  0  0  0  0  0  0  0  0  0  0
  143.8380  139.5330  150.1800 H   0  0  0  0  0  0  0  0  0  0  0  0
  145.8300  140.1320  149.8420 C   0  0  0  0  0  2  0  0  0  0  0  0
  147.8650  140.3620  153.0640 C   0  0  0  0  0  0  0  0  0  0  0  0
  147.3720  139.9230  151.8300 C   0  0  0  0  0  3  0  0  0  0  0  0
  146.3710  140.6450  151.1540 C   0  0  0  0  0  0  0  0  0  0  0  0
  145.8870  141.8330  151.7150 C   0  0  0  0  0  3  0  0  0  0  0  0
  146.3730  142.2810  152.9440 C   0  0  0  0  0  3  0  0  0  0  0  0
  147.3520  141.5440  153.6110 C   0  0  0  0  0  0  0  0  0  0  0  0
  148.8150  138.2960  153.7790 C   0  0  0  0  0  1  0  0  0  0  0  0
  148.8260  139.7170  153.7990 O   0  0  0  0  0  0  0  0  0  0  0  0
  147.8200  141.9790  154.8240 O   0  0  0  0  0  0  0  0  0  0  0  0
  147.2660  141.9500  155.5780 H   0  0  0  0  0  0  0  0  0  0  0  0
  143.7160  136.9920  150.2690 C   0  0  0  0  0  2  0  0  0  0  0  0
  142.9370  137.3060  151.5280 C   0  0  0  0  0  0  0  0  0  0  0  0
  141.5600  137.5720  151.5420 C   0  0  0  0  0  3  0  0  0  0  0  0
  140.9030  137.8710  152.7400 C   0  0  0  0  0  3  0  0  0  0  0  0
  141.6160  137.9130  153.9350 C   0  0  0  0  0  0  0  0  0  0  0  0
  140.8070  138.2970  155.4040 Cl  0  0  0  0  0  0  0  0  0  0  0  0
  142.9810  137.6470  153.9450 C   0  0  0  0  0  3  0  0  0  0  0  0
  143.6370  137.3440  152.7480 C   0  0  0  0  0  3  0  0  0  0  0  0
  1  4  1  0  0  0  0
  2  1  1  0  0  0  0
  2 16  1  0  0  0  0
  3  2  2  0  0  0  0
  5  1  1  0  0  0  0
  5  8  1  0  0  0  0
  6 11  1  0  0  0  0
  6 13  1  0  0  0  0
  7  6  2  0  0  0  0
  8  9  2  0  0  0  0
  8  7  1  0  0  0  0
  9 10  1  0  0  0  0
 10 11  2  0  0  0  0
 11 14  1  0  0  0  0
 12 13  1  0  0  0  0
 14 15  1  0  0  0  0
 16 17  1  0  0  0  0
 17 18  2  0  0  0  0
 17 23  1  0  0  0  0
 18 19  1  0  0  0  0
 19 20  2  0  0  0  0
 20 22  1  0  0  0  0
 20 21  1  0  0  0  0
 23 22  2  0  0  0  0
M  END
>  <MODEL>
4

>  <REMARK>
 VINA RESULT:    -6.892      9.951     12.834
 INTER + INTRA:          -9.565
 INTER:                  -8.815
 INTRA:                  -0.750
 UNBOUND:                -0.458
  Name = CHEMBL80744
  7 active torsions:
  status: ('A' for Active; 'I' for Inactive)
    1  A    between atoms: C_1  and  O_2
    2  A    between atoms: O_2  and  C_3
    3  A    between atoms: C_5  and  C_6
    4  A    between atoms: C_6  and  N_7
    5  A    between atoms: C_8  and  C_10
    6  A    between atoms: C_10  and  C_11
    7  A    between atoms: C_20  and  O_21
                            x       y       z     vdW  Elec       q    Type
                         _______ _______ _______ _____ _____    ______ ____

>  <TORSDO>
F 6

>  <SCORE>
-6.892

>  <RMSD_LB>
9.951

>  <RMSD_UB>
12.834

$$$$
CHEMBL80744
 OpenBabel10162523483D

 23 24  0  0  0  0  0  0  0  0999 V2000
  144.8130  138.4610  151.1600 N   0  0  0  0  0  0  0  0  0  0  0  0
  143.5000  138.7130  151.5020 C   0  0  0  0  0  0  0  0  0  0  0  0
  142.9970  139.8320  151.4300 O   0  0  0  0  0  0  0  0  0  0  0  0
  145.1630  137.5440  151.2470 H   0  0  0  0  0  0  0  0  0  0  0  0
  145.6880  139.5040  150.6760 C   0  0  0  0  0  2  0  0  0  0  0  0
  147.5680  139.9620  153.9670 C   0  0  0  0  0  0  0  0  0  0  0  0
  146.8610  139.3820  152.9080 C   0  0  0  0  0  3  0  0  0  0  0  0
  146.4810  140.1440  151.7880 C   0  0  0  0  0  0  0  0  0  0  0  0
  146.8430  141.4950  151.7260 C   0  0  0  0  0  3  0  0  0  0  0  0
  147.5500  142.0840  152.7760 C   0  0  0  0  0  3  0  0  0  0  0  0
  147.9030  141.3190  153.8880 C   0  0  0  0  0  0  0  0  0  0  0  0
  148.1630  137.8970  155.0000 C   0  0  0  0  0  1  0  0  0  0  0  0
  147.9650  139.3010  155.1010 O   0  0  0  0  0  0  0  0  0  0  0  0
  148.5860  141.9010  154.9230 O   0  0  0  0  0  0  0  0  0  0  0  0
  148.9750  141.3680  155.5870 H   0  0  0  0  0  0  0  0  0  0  0  0
  142.7130  137.4870  151.9380 C   0  0  0  0  0  2  0  0  0  0  0  0
  141.4310  137.7330  152.7040 C   0  0  0  0  0  0  0  0  0  0  0  0
  140.1660  137.7840  152.1020 C   0  0  0  0  0  3  0  0  0  0  0  0
  139.0210  138.0310  152.8670 C   0  0  0  0  0  3  0  0  0  0  0  0
  139.1300  138.2340  154.2400 C   0  0  0  0  0  0  0  0  0  0  0  0
  137.7210  138.5540  155.1740 Cl  0  0  0  0  0  0  0  0  0  0  0  0
  140.3740  138.1830  154.8580 C   0  0  0  0  0  3  0  0  0  0  0  0
  141.5180  137.9320  154.0950 C   0  0  0  0  0  3  0  0  0  0  0  0
  1  4  1  0  0  0  0
  1  2  1  0  0  0  0
  2 16  1  0  0  0  0
  3  2  2  0  0  0  0
  5  1  1  0  0  0  0
  5  8  1  0  0  0  0
  6 13  1  0  0  0  0
  7  6  2  0  0  0  0
  8  7  1  0  0  0  0
  9  8  2  0  0  0  0
  9 10  1  0  0  0  0
 10 11  2  0  0  0  0
 11  6  1  0  0  0  0
 11 14  1  0  0  0  0
 12 13  1  0  0  0  0
 14 15  1  0  0  0  0
 16 17  1  0  0  0  0
 17 23  1  0  0  0  0
 18 17  2  0  0  0  0
 18 19  1  0  0  0  0
 19 20  2  0  0  0  0
 20 22  1  0  0  0  0
 20 21  1  0  0  0  0
 23 22  2  0  0  0  0
M  END
>  <MODEL>
5

>  <REMARK>
 VINA RESULT:    -6.834      9.260     12.392
 INTER + INTRA:          -9.489
 INTER:                  -8.916
 INTRA:                  -0.573
 UNBOUND:                -0.458
  Name = CHEMBL80744
  7 active torsions:
  status: ('A' for Active; 'I' for Inactive)
    1  A    between atoms: C_1  and  O_2
    2  A    between atoms: O_2  and  C_3
    3  A    between atoms: C_5  and  C_6
    4  A    between atoms: C_6  and  N_7
    5  A    between atoms: C_8  and  C_10
    6  A    between atoms: C_10  and  C_11
    7  A    between atoms: C_20  and  O_21
                            x       y       z     vdW  Elec       q    Type
                         _______ _______ _______ _____ _____    ______ ____

>  <TORSDO>
F 6

>  <SCORE>
-6.834

>  <RMSD_LB>
9.260

>  <RMSD_UB>
12.392

$$$$
CHEMBL80744
 OpenBabel10162523483D

 23 24  0  0  0  0  0  0  0  0999 V2000
  135.9810  133.3810  146.2640 N   0  0  0  0  0  0  0  0  0  0  0  0
  135.3440  133.3000  145.0440 C   0  0  0  0  0  0  0  0  0  0  0  0
  134.4960  132.4460  144.7900 O   0  0  0  0  0  0  0  0  0  0  0  0
  136.6570  134.0830  146.4050 H   0  0  0  0  0  0  0  0  0  0  0  0
  135.6820  132.4670  147.3430 C   0  0  0  0  0  2  0  0  0  0  0  0
  134.4210  134.1780  150.5130 C   0  0  0  0  0  0  0  0  0  0  0  0
  135.2690  133.6400  149.5380 C   0  0  0  0  0  3  0  0  0  0  0  0
  134.7490  133.0720  148.3610 C   0  0  0  0  0  0  0  0  0  0  0  0
  133.3640  133.0740  148.1550 C   0  0  0  0  0  3  0  0  0  0  0  0
  132.5080  133.6090  149.1190 C   0  0  0  0  0  3  0  0  0  0  0  0
  133.0380  134.1520  150.2900 C   0  0  0  0  0  0  0  0  0  0  0  0
  135.4020  136.0390  151.6330 C   0  0  0  0  0  1  0  0  0  0  0  0
  134.8370  134.7370  151.6940 O   0  0  0  0  0  0  0  0  0  0  0  0
  132.1970  134.6670  151.2410 O   0  0  0  0  0  0  0  0  0  0  0  0
  132.5490  135.0930  151.9960 H   0  0  0  0  0  0  0  0  0  0  0  0
  135.7430  134.3780  144.0470 C   0  0  0  0  0  2  0  0  0  0  0  0
  136.5760  133.9410  142.8620 C   0  0  0  0  0  0  0  0  0  0  0  0
  137.2720  132.7250  142.8100 C   0  0  0  0  0  3  0  0  0  0  0  0
  138.0370  132.3880  141.6880 C   0  0  0  0  0  3  0  0  0  0  0  0
  138.1180  133.2660  140.6100 C   0  0  0  0  0  0  0  0  0  0  0  0
  139.0730  132.8550  139.2400 Cl  0  0  0  0  0  0  0  0  0  0  0  0
  137.4310  134.4750  140.6390 C   0  0  0  0  0  3  0  0  0  0  0  0
  136.6630  134.8100  141.7580 C   0  0  0  0  0  3  0  0  0  0  0  0
  1  4  1  0  0  0  0
  1  5  1  0  0  0  0
  2  1  1  0  0  0  0
  3  2  2  0  0  0  0
  5  8  1  0  0  0  0
  6 13  1  0  0  0  0
  7  6  2  0  0  0  0
  8  7  1  0  0  0  0
  9  8  2  0  0  0  0
  9 10  1  0  0  0  0
 10 11  2  0  0  0  0
 11  6  1  0  0  0  0
 11 14  1  0  0  0  0
 12 13  1  0  0  0  0
 14 15  1  0  0  0  0
 16  2  1  0  0  0  0
 17 16  1  0  0  0  0
 18 17  1  0  0  0  0
 19 18  2  0  0  0  0
 20 22  2  0  0  0  0
 20 19  1  0  0  0  0
 21 20  1  0  0  0  0
 22 23  1  0  0  0  0
 23 17  2  0  0  0  0
M  END
>  <MODEL>
6

>  <REMARK>
 VINA RESULT:    -6.665      6.369     10.326
 INTER + INTRA:          -9.266
 INTER:                  -8.790
 INTRA:                  -0.476
 UNBOUND:                -0.458
  Name = CHEMBL80744
  7 active torsions:
  status: ('A' for Active; 'I' for Inactive)
    1  A    between atoms: C_1  and  O_2
    2  A    between atoms: O_2  and  C_3
    3  A    between atoms: C_5  and  C_6
    4  A    between atoms: C_6  and  N_7
    5  A    between atoms: C_8  and  C_10
    6  A    between atoms: C_10  and  C_11
    7  A    between atoms: C_20  and  O_21
                            x       y       z     vdW  Elec       q    Type
                         _______ _______ _______ _____ _____    ______ ____

>  <TORSDO>
F 6

>  <SCORE>
-6.665

>  <RMSD_LB>
6.369

>  <RMSD_UB>
10.326

$$$$
CHEMBL80744
 OpenBabel10162523483D

 23 24  0  0  0  0  0  0  0  0999 V2000
  139.5700  136.9540  150.4820 N   0  0  0  0  0  0  0  0  0  0  0  0
  138.4260  137.7210  150.5620 C   0  0  0  0  0  0  0  0  0  0  0  0
  138.4190  138.9300  150.3360 O   0  0  0  0  0  0  0  0  0  0  0  0
  139.5150  135.9910  150.6820 H   0  0  0  0  0  0  0  0  0  0  0  0
  140.8460  137.5230  150.1110 C   0  0  0  0  0  2  0  0  0  0  0  0
  142.3730  137.8810  153.5910 C   0  0  0  0  0  0  0  0  0  0  0  0
  141.4580  137.8860  152.5320 C   0  0  0  0  0  3  0  0  0  0  0  0
  141.8420  137.4750  151.2420 C   0  0  0  0  0  0  0  0  0  0  0  0
  143.1520  137.0290  151.0280 C   0  0  0  0  0  3  0  0  0  0  0  0
  144.0730  137.0190  152.0770 C   0  0  0  0  0  3  0  0  0  0  0  0
  143.6820  137.4470  153.3460 C   0  0  0  0  0  0  0  0  0  0  0  0
  140.7450  138.1580  155.3100 C   0  0  0  0  0  1  0  0  0  0  0  0
  142.0930  138.2770  154.8730 O   0  0  0  0  0  0  0  0  0  0  0  0
  144.5900  137.4470  154.3710 O   0  0  0  0  0  0  0  0  0  0  0  0
  145.4900  137.2510  154.2010 H   0  0  0  0  0  0  0  0  0  0  0  0
  137.1660  136.9450  150.9120 C   0  0  0  0  0  2  0  0  0  0  0  0
  136.9330  136.6400  152.3760 C   0  0  0  0  0  0  0  0  0  0  0  0
  137.5910  137.3050  153.4200 C   0  0  0  0  0  3  0  0  0  0  0  0
  137.3410  136.9630  154.7540 C   0  0  0  0  0  3  0  0  0  0  0  0
  136.4350  135.9490  155.0550 C   0  0  0  0  0  0  0  0  0  0  0  0
  136.1430  135.5210  156.6950 Cl  0  0  0  0  0  0  0  0  0  0  0  0
  135.7680  135.2800  154.0350 C   0  0  0  0  0  3  0  0  0  0  0  0
  136.0150  135.6250  152.7030 C   0  0  0  0  0  3  0  0  0  0  0  0
  1  2  1  0  0  0  0
  1  4  1  0  0  0  0
  2 16  1  0  0  0  0
  3  2  2  0  0  0  0
  5  1  1  0  0  0  0
  5  8  1  0  0  0  0
  6 13  1  0  0  0  0
  7  6  2  0  0  0  0
  8  7  1  0  0  0  0
  9  8  2  0  0  0  0
  9 10  1  0  0  0  0
 10 11  2  0  0  0  0
 11  6  1  0  0  0  0
 11 14  1  0  0  0  0
 13 12  1  0  0  0  0
 15 14  1  0  0  0  0
 16 17  1  0  0  0  0
 17 23  2  0  0  0  0
 17 18  1  0  0  0  0
 18 19  2  0  0  0  0
 19 20  1  0  0  0  0
 20 21  1  0  0  0  0
 22 20  2  0  0  0  0
 23 22  1  0  0  0  0
M  END
>  <MODEL>
7

>  <REMARK>
 VINA RESULT:    -6.575      5.301      8.145
 INTER + INTRA:          -9.146
 INTER:                  -8.371
 INTRA:                  -0.775
 UNBOUND:                -0.458
  Name = CHEMBL80744
  7 active torsions:
  status: ('A' for Active; 'I' for Inactive)
    1  A    between atoms: C_1  and  O_2
    2  A    between atoms: O_2  and  C_3
    3  A    between atoms: C_5  and  C_6
    4  A    between atoms: C_6  and  N_7
    5  A    between atoms: C_8  and  C_10
    6  A    between atoms: C_10  and  C_11
    7  A    between atoms: C_20  and  O_21
                            x       y       z     vdW  Elec       q    Type
                         _______ _______ _______ _____ _____    ______ ____

>  <TORSDO>
F 6

>  <SCORE>
-6.575

>  <RMSD_LB>
5.301

>  <RMSD_UB>
8.145

$$$$
CHEMBL80744
 OpenBabel10162523483D

 23 24  0  0  0  0  0  0  0  0999 V2000
  142.7240  139.4660  151.0520 N   0  0  0  0  0  0  0  0  0  0  0  0
  141.4190  139.5120  150.6070 C   0  0  0  0  0  0  0  0  0  0  0  0
  141.0320  140.3160  149.7610 O   0  0  0  0  0  0  0  0  0  0  0  0
  142.9720  138.8040  151.7380 H   0  0  0  0  0  0  0  0  0  0  0  0
  143.7360  140.3600  150.5390 C   0  0  0  0  0  2  0  0  0  0  0  0
  145.8520  140.3200  153.7160 C   0  0  0  0  0  0  0  0  0  0  0  0
  144.9720  139.9350  152.6980 C   0  0  0  0  0  3  0  0  0  0  0  0
  144.7160  140.7830  151.6050 C   0  0  0  0  0  0  0  0  0  0  0  0
  145.3760  142.0160  151.5260 C   0  0  0  0  0  3  0  0  0  0  0  0
  146.2570  142.4090  152.5350 C   0  0  0  0  0  3  0  0  0  0  0  0
  146.4850  141.5650  153.6220 C   0  0  0  0  0  0  0  0  0  0  0  0
  146.1190  138.1540  154.6750 C   0  0  0  0  0  1  0  0  0  0  0  0
  146.1490  139.5680  154.8230 O   0  0  0  0  0  0  0  0  0  0  0  0
  147.3420  141.9580  154.6170 O   0  0  0  0  0  0  0  0  0  0  0  0
  148.0080  142.5920  154.4400 H   0  0  0  0  0  0  0  0  0  0  0  0
  140.5040  138.4610  151.2160 C   0  0  0  0  0  2  0  0  0  0  0  0
  140.0500  137.3370  150.3090 C   0  0  0  0  0  0  0  0  0  0  0  0
  140.9160  136.6210  149.4710 C   0  0  0  0  0  3  0  0  0  0  0  0
  140.4290  135.6030  148.6440 C   0  0  0  0  0  3  0  0  0  0  0  0
  139.0710  135.2950  148.6440 C   0  0  0  0  0  0  0  0  0  0  0  0
  138.4730  134.0530  147.6150 Cl  0  0  0  0  0  0  0  0  0  0  0  0
  138.1950  135.9890  149.4720 C   0  0  0  0  0  3  0  0  0  0  0  0
  138.6830  137.0040  150.3010 C   0  0  0  0  0  3  0  0  0  0  0  0
  1  4  1  0  0  0  0
  2  1  1  0  0  0  0
  2 16  1  0  0  0  0
  3  2  2  0  0  0  0
  5  1  1  0  0  0  0
  5  8  1  0  0  0  0
  6 13  1  0  0  0  0
  7  6  2  0  0  0  0
  8  7  1  0  0  0  0
  9  8  2  0  0  0  0
  9 10  1  0  0  0  0
 10 11  2  0  0  0  0
 11  6  1  0  0  0  0
 11 14  1  0  0  0  0
 12 13  1  0  0  0  0
 15 14  1  0  0  0  0
 17 16  1  0  0  0  0
 18 17  2  0  0  0  0
 19 18  1  0  0  0  0
 20 19  2  0  0  0  0
 20 22  1  0  0  0  0
 21 20  1  0  0  0  0
 22 23  2  0  0  0  0
 23 17  1  0  0  0  0
M  END
>  <MODEL>
8

>  <REMARK>
 VINA RESULT:    -6.557      8.832     12.086
 INTER + INTRA:          -9.123
 INTER:                  -8.665
 INTRA:                  -0.458
 UNBOUND:                -0.458
  Name = CHEMBL80744
  7 active torsions:
  status: ('A' for Active; 'I' for Inactive)
    1  A    between atoms: C_1  and  O_2
    2  A    between atoms: O_2  and  C_3
    3  A    between atoms: C_5  and  C_6
    4  A    between atoms: C_6  and  N_7
    5  A    between atoms: C_8  and  C_10
    6  A    between atoms: C_10  and  C_11
    7  A    between atoms: C_20  and  O_21
                            x       y       z     vdW  Elec       q    Type
                         _______ _______ _______ _____ _____    ______ ____

>  <TORSDO>
F 6

>  <SCORE>
-6.557

>  <RMSD_LB>
8.832

>  <RMSD_UB>
12.086

$$$$
CHEMBL80744
 OpenBabel10162523483D

 23 24  0  0  0  0  0  0  0  0999 V2000
  144.3340  138.6350  152.1350 N   0  0  0  0  0  0  0  0  0  0  0  0
  144.9880  138.3050  150.9660 C   0  0  0  0  0  0  0  0  0  0  0  0
  145.0770  137.1490  150.5560 O   0  0  0  0  0  0  0  0  0  0  0  0
  144.3040  139.5780  152.4170 H   0  0  0  0  0  0  0  0  0  0  0  0
  143.6910  137.6350  152.9570 C   0  0  0  0  0  2  0  0  0  0  0  0
  140.1400  138.3080  154.1850 C   0  0  0  0  0  0  0  0  0  0  0  0
  141.5340  138.1930  154.1420 C   0  0  0  0  0  3  0  0  0  0  0  0
  142.1900  137.7850  152.9670 C   0  0  0  0  0  0  0  0  0  0  0  0
  141.4340  137.5180  151.8190 C   0  0  0  0  0  3  0  0  0  0  0  0
  140.0430  137.6310  151.8490 C   0  0  0  0  0  3  0  0  0  0  0  0
  139.4060  138.0190  153.0280 C   0  0  0  0  0  0  0  0  0  0  0  0
  139.3010  137.7370  156.3420 C   0  0  0  0  0  1  0  0  0  0  0  0
  139.4160  138.6830  155.2870 O   0  0  0  0  0  0  0  0  0  0  0  0
  138.0390  138.1180  153.0590 O   0  0  0  0  0  0  0  0  0  0  0  0
  137.6120  138.8420  152.6460 H   0  0  0  0  0  0  0  0  0  0  0  0
  145.5580  139.4910  150.2030 C   0  0  0  0  0  2  0  0  0  0  0  0
  146.7070  140.2350  150.8490 C   0  0  0  0  0  0  0  0  0  0  0  0
  147.5150  139.6890  151.8560 C   0  0  0  0  0  3  0  0  0  0  0  0
  148.5520  140.4370  152.4220 C   0  0  0  0  0  3  0  0  0  0  0  0
  148.7890  141.7390  151.9900 C   0  0  0  0  0  0  0  0  0  0  0  0
  150.0560  142.6610  152.7010 Cl  0  0  0  0  0  0  0  0  0  0  0  0
  148.0030  142.2980  150.9890 C   0  0  0  0  0  3  0  0  0  0  0  0
  146.9690  141.5490  150.4200 C   0  0  0  0  0  3  0  0  0  0  0  0
  1  4  1  0  0  0  0
  1  5  1  0  0  0  0
  2  1  1  0  0  0  0
  3  2  2  0  0  0  0
  5  8  1  0  0  0  0
  6 13  1  0  0  0  0
  7  6  1  0  0  0  0
  8  7  2  0  0  0  0
  9 10  2  0  0  0  0
  9  8  1  0  0  0  0
 10 11  1  0  0  0  0
 11 14  1  0  0  0  0
 11  6  2  0  0  0  0
 13 12  1  0  0  0  0
 15 14  1  0  0  0  0
 16 17  1  0  0  0  0
 16  2  1  0  0  0  0
 17 18  1  0  0  0  0
 18 19  2  0  0  0  0
 20 19  1  0  0  0  0
 20 21  1  0  0  0  0
 22 20  2  0  0  0  0
 23 17  2  0  0  0  0
 23 22  1  0  0  0  0
M  END
>  <MODEL>
9

>  <REMARK>
 VINA RESULT:    -6.529      9.103     11.335
 INTER + INTRA:          -9.085
 INTER:                  -8.666
 INTRA:                  -0.419
 UNBOUND:                -0.458
  Name = CHEMBL80744
  7 active torsions:
  status: ('A' for Active; 'I' for Inactive)
    1  A    between atoms: C_1  and  O_2
    2  A    between atoms: O_2  and  C_3
    3  A    between atoms: C_5  and  C_6
    4  A    between atoms: C_6  and  N_7
    5  A    between atoms: C_8  and  C_10
    6  A    between atoms: C_10  and  C_11
    7  A    between atoms: C_20  and  O_21
                            x       y       z     vdW  Elec       q    Type
                         _______ _______ _______ _____ _____    ______ ____

>  <TORSDO>
F 6

>  <SCORE>
-6.529

>  <RMSD_LB>
9.103

>  <RMSD_UB>
11.335

$$$$
