CHEMBL1302256
 OpenBabel10172500073D

 24 25  0  0  1  0  0  0  0  0999 V2000
  145.7090  137.9970  149.8970 C   0  0  0  0  0  2  0  0  0  0  0  0
  145.6950  139.2640  149.0110 C   0  0  1  0  0  3  0  0  0  0  0  0
  144.3720  140.0240  149.1740 C   0  0  0  0  0  1  0  0  0  0  0  0
  146.8040  140.1940  149.2630 N   0  0  0  0  0  4  0  0  0  0  0  0
  147.3070  140.3450  148.3880 H   0  0  0  0  0  0  0  0  0  0  0  0
  147.3980  139.7730  149.9780 H   0  0  0  0  0  0  0  0  0  0  0  0
  146.3630  141.4930  149.7750 C   0  0  0  0  0  2  0  0  0  0  0  0
  146.8070  141.7190  151.2010 C   0  0  0  0  0  0  0  0  0  0  0  0
  145.8740  142.0780  152.1880 C   0  0  0  0  0  3  0  0  0  0  0  0
  146.2750  142.2440  153.5140 C   0  0  0  0  0  3  0  0  0  0  0  0
  147.6090  142.0540  153.8670 C   0  0  0  0  0  3  0  0  0  0  0  0
  148.5450  141.7060  152.8950 C   0  0  0  0  0  3  0  0  0  0  0  0
  148.1450  141.5390  151.5680 C   0  0  0  0  0  3  0  0  0  0  0  0
  146.9530  137.8900  150.7860 C   0  0  0  0  0  2  0  0  0  0  0  0
  145.1490  138.8390  154.0160 C   0  0  0  0  0  0  0  0  0  0  0  0
  145.4060  138.5920  152.6640 C   0  0  0  0  0  3  0  0  0  0  0  0
  146.6920  138.2210  152.2340 C   0  0  0  0  0  0  0  0  0  0  0  0
  147.7230  138.0960  153.1710 C   0  0  0  0  0  3  0  0  0  0  0  0
  147.4770  138.3340  154.5200 C   0  0  0  0  0  3  0  0  0  0  0  0
  146.1980  138.7040  154.9340 C   0  0  0  0  0  0  0  0  0  0  0  0
  142.8010  138.4350  154.1300 C   0  0  0  0  0  1  0  0  0  0  0  0
  143.9310  139.1970  154.5310 O   0  0  0  0  0  0  0  0  0  0  0  0
  145.9580  138.9310  156.2640 O   0  0  0  0  0  0  0  0  0  0  0  0
  146.6580  138.8620  156.8850 H   0  0  0  0  0  0  0  0  0  0  0  0
  1 14  1  0  0  0  0
  2  3  1  1  0  0  0
  2  4  1  0  0  0  0
  2  1  1  0  0  0  0
  4  7  1  0  0  0  0
  4  6  1  0  0  0  0
  5  4  1  0  0  0  0
  7  8  1  0  0  0  0
  8 13  2  0  0  0  0
  8  9  1  0  0  0  0
  9 10  2  0  0  0  0
 10 11  1  0  0  0  0
 12 11  2  0  0  0  0
 13 12  1  0  0  0  0
 14 17  1  0  0  0  0
 15 22  1  0  0  0  0
 15 20  1  0  0  0  0
 16 15  2  0  0  0  0
 17 16  1  0  0  0  0
 17 18  2  0  0  0  0
 18 19  1  0  0  0  0
 19 20  2  0  0  0  0
 20 23  1  0  0  0  0
 21 22  1  0  0  0  0
 23 24  1  0  0  0  0
M  END
>  <MODEL>
1

>  <REMARK>
 VINA RESULT:    -6.210      0.000      0.000
 INTER + INTRA:         -11.534
 INTER:                  -8.982
 INTRA:                  -2.551
 UNBOUND:                -2.601
  Name = CHEMBL1302256
  10 active torsions:
  status: ('A' for Active; 'I' for Inactive)
    1  A    between atoms: C_1  and  O_2
    2  A    between atoms: O_2  and  C_3
    3  A    between atoms: C_5  and  C_6
    4  A    between atoms: C_6  and  C_7
    5  A    between atoms: C_7  and  C_8
    6  A    between atoms: C_8  and  C_9
    7  A    between atoms: C_8  and  N_10
    8  A    between atoms: N_10  and  C_11
    9  A    between atoms: C_11  and  C_12
   10  A    between atoms: C_20  and  O_21
                            x       y       z     vdW  Elec       q    Type
                         _______ _______ _______ _____ _____    ______ ____

>  <TORSDO>
F 8

>  <SCORE>
-6.210

>  <RMSD_LB>
0.000

>  <RMSD_UB>
0.000

$$$$
CHEMBL1302256
 OpenBabel10172500073D

 24 25  0  0  1  0  0  0  0  0999 V2000
  137.0890  134.5370  148.3360 C   0  0  0  0  0  2  0  0  0  0  0  0
  136.4170  134.6830  146.9510 C   0  0  1  0  0  3  0  0  0  0  0  0
  137.3250  134.1260  145.8480 C   0  0  0  0  0  1  0  0  0  0  0  0
  135.1000  134.0410  146.8440 N   0  0  0  0  0  4  0  0  0  0  0  0
  135.0260  133.3280  147.5690 H   0  0  0  0  0  0  0  0  0  0  0  0
  135.0310  133.6440  145.9060 H   0  0  0  0  0  0  0  0  0  0  0  0
  133.9870  134.9800  147.0000 C   0  0  0  0  0  2  0  0  0  0  0  0
  133.4400  134.9800  148.4080 C   0  0  0  0  0  0  0  0  0  0  0  0
  133.3310  136.1800  149.1290 C   0  0  0  0  0  3  0  0  0  0  0  0
  132.7850  136.1880  150.4130 C   0  0  0  0  0  3  0  0  0  0  0  0
  132.3440  134.9990  150.9890 C   0  0  0  0  0  3  0  0  0  0  0  0
  132.4550  133.8000  150.2870 C   0  0  0  0  0  3  0  0  0  0  0  0
  133.0010  133.7910  149.0020 C   0  0  0  0  0  3  0  0  0  0  0  0
  137.0430  135.8200  149.1730 C   0  0  0  0  0  2  0  0  0  0  0  0
  136.5550  136.3880  152.9180 C   0  0  0  0  0  0  0  0  0  0  0  0
  136.9370  136.5790  151.5870 C   0  0  0  0  0  3  0  0  0  0  0  0
  136.6930  135.5870  150.6210 C   0  0  0  0  0  0  0  0  0  0  0  0
  136.0570  134.3990  150.9980 C   0  0  0  0  0  3  0  0  0  0  0  0
  135.6680  134.2010  152.3200 C   0  0  0  0  0  3  0  0  0  0  0  0
  135.9190  135.1900  153.2690 C   0  0  0  0  0  0  0  0  0  0  0  0
  138.0530  137.8170  154.1040 C   0  0  0  0  0  1  0  0  0  0  0  0
  136.7440  137.2960  153.9270 O   0  0  0  0  0  0  0  0  0  0  0  0
  135.5280  134.9940  154.5680 O   0  0  0  0  0  0  0  0  0  0  0  0
  136.0940  135.2500  155.2700 H   0  0  0  0  0  0  0  0  0  0  0  0
  1 14  1  0  0  0  0
  2  3  1  6  0  0  0
  2  1  1  0  0  0  0
  4  2  1  0  0  0  0
  4  7  1  0  0  0  0
  4  5  1  0  0  0  0
  6  4  1  0  0  0  0
  7  8  1  0  0  0  0
  8 13  2  0  0  0  0
  8  9  1  0  0  0  0
  9 10  2  0  0  0  0
 10 11  1  0  0  0  0
 12 11  2  0  0  0  0
 13 12  1  0  0  0  0
 14 17  1  0  0  0  0
 15 20  1  0  0  0  0
 15 22  1  0  0  0  0
 16 15  2  0  0  0  0
 17 18  2  0  0  0  0
 17 16  1  0  0  0  0
 18 19  1  0  0  0  0
 19 20  2  0  0  0  0
 20 23  1  0  0  0  0
 22 21  1  0  0  0  0
 23 24  1  0  0  0  0
M  END
>  <MODEL>
2

>  <REMARK>
 VINA RESULT:    -5.821      9.666     12.481
 INTER + INTRA:         -10.975
 INTER:                  -8.826
 INTRA:                  -2.149
 UNBOUND:                -2.601
  Name = CHEMBL1302256
  10 active torsions:
  status: ('A' for Active; 'I' for Inactive)
    1  A    between atoms: C_1  and  O_2
    2  A    between atoms: O_2  and  C_3
    3  A    between atoms: C_5  and  C_6
    4  A    between atoms: C_6  and  C_7
    5  A    between atoms: C_7  and  C_8
    6  A    between atoms: C_8  and  C_9
    7  A    between atoms: C_8  and  N_10
    8  A    between atoms: N_10  and  C_11
    9  A    between atoms: C_11  and  C_12
   10  A    between atoms: C_20  and  O_21
                            x       y       z     vdW  Elec       q    Type
                         _______ _______ _______ _____ _____    ______ ____

>  <TORSDO>
F 8

>  <SCORE>
-5.821

>  <RMSD_LB>
9.666

>  <RMSD_UB>
12.481

$$$$
CHEMBL1302256
 OpenBabel10172500073D

 24 25  0  0  1  0  0  0  0  0999 V2000
  146.5560  136.7060  150.0070 C   0  0  0  0  0  2  0  0  0  0  0  0
  145.2010  137.2710  149.5230 C   0  0  1  0  0  3  0  0  0  0  0  0
  144.0580  136.7810  150.4210 C   0  0  0  0  0  1  0  0  0  0  0  0
  145.1440  138.7370  149.4490 N   0  0  0  0  0  4  0  0  0  0  0  0
  144.6050  139.0810  150.2440 H   0  0  0  0  0  0  0  0  0  0  0  0
  144.7100  138.9800  148.5580 H   0  0  0  0  0  0  0  0  0  0  0  0
  146.4650  139.3670  149.4750 C   0  0  0  0  0  2  0  0  0  0  0  0
  146.5730  140.4120  150.5610 C   0  0  0  0  0  0  0  0  0  0  0  0
  145.4150  140.9630  151.1350 C   0  0  0  0  0  3  0  0  0  0  0  0
  145.5130  141.8960  152.1690 C   0  0  0  0  0  3  0  0  0  0  0  0
  146.7660  142.2860  152.6380 C   0  0  0  0  0  3  0  0  0  0  0  0
  147.9210  141.7520  152.0700 C   0  0  0  0  0  3  0  0  0  0  0  0
  147.8240  140.8190  151.0360 C   0  0  0  0  0  3  0  0  0  0  0  0
  146.5280  136.2190  151.4600 C   0  0  0  0  0  2  0  0  0  0  0  0
  146.6660  138.8480  154.2280 C   0  0  0  0  0  0  0  0  0  0  0  0
  146.1750  137.9570  153.2690 C   0  0  0  0  0  3  0  0  0  0  0  0
  147.0550  137.2300  152.4470 C   0  0  0  0  0  0  0  0  0  0  0  0
  148.4360  137.4000  152.5960 C   0  0  0  0  0  3  0  0  0  0  0  0
  148.9350  138.2820  153.5510 C   0  0  0  0  0  3  0  0  0  0  0  0
  148.0530  138.9980  154.3570 C   0  0  0  0  0  0  0  0  0  0  0  0
  144.4850  139.5730  154.8680 C   0  0  0  0  0  1  0  0  0  0  0  0
  145.8900  139.5930  155.0760 O   0  0  0  0  0  0  0  0  0  0  0  0
  148.5480  139.8600  155.3000 O   0  0  0  0  0  0  0  0  0  0  0  0
  149.2450  139.5860  155.8640 H   0  0  0  0  0  0  0  0  0  0  0  0
  1 14  1  0  0  0  0
  2  1  1  0  0  0  0
  2  3  1  1  0  0  0
  4  7  1  0  0  0  0
  4  2  1  0  0  0  0
  4  5  1  0  0  0  0
  6  4  1  0  0  0  0
  7  8  1  0  0  0  0
  8 13  2  0  0  0  0
  8  9  1  0  0  0  0
  9 10  2  0  0  0  0
 10 11  1  0  0  0  0
 12 11  2  0  0  0  0
 13 12  1  0  0  0  0
 14 17  1  0  0  0  0
 15 20  1  0  0  0  0
 15 22  1  0  0  0  0
 16 15  2  0  0  0  0
 17 18  2  0  0  0  0
 17 16  1  0  0  0  0
 18 19  1  0  0  0  0
 19 20  2  0  0  0  0
 20 23  1  0  0  0  0
 21 22  1  0  0  0  0
 23 24  1  0  0  0  0
M  END
>  <MODEL>
3

>  <REMARK>
 VINA RESULT:    -5.710      1.424      1.878
 INTER + INTRA:         -10.814
 INTER:                  -8.353
 INTRA:                  -2.462
 UNBOUND:                -2.601
  Name = CHEMBL1302256
  10 active torsions:
  status: ('A' for Active; 'I' for Inactive)
    1  A    between atoms: C_1  and  O_2
    2  A    between atoms: O_2  and  C_3
    3  A    between atoms: C_5  and  C_6
    4  A    between atoms: C_6  and  C_7
    5  A    between atoms: C_7  and  C_8
    6  A    between atoms: C_8  and  C_9
    7  A    between atoms: C_8  and  N_10
    8  A    between atoms: N_10  and  C_11
    9  A    between atoms: C_11  and  C_12
   10  A    between atoms: C_20  and  O_21
                            x       y       z     vdW  Elec       q    Type
                         _______ _______ _______ _____ _____    ______ ____

>  <TORSDO>
F 8

>  <SCORE>
-5.710

>  <RMSD_LB>
1.424

>  <RMSD_UB>
1.878

$$$$
CHEMBL1302256
 OpenBabel10172500073D

 24 25  0  0  1  0  0  0  0  0999 V2000
  147.2400  141.9170  152.3910 C   0  0  0  0  0  2  0  0  0  0  0  0
  147.5700  141.1060  153.6650 C   0  0  1  0  0  3  0  0  0  0  0  0
  148.5930  141.8510  154.5310 C   0  0  0  0  0  1  0  0  0  0  0  0
  146.4040  140.7750  154.4950 N   0  0  0  0  0  4  0  0  0  0  0  0
  145.5610  141.0660  154.0010 H   0  0  0  0  0  0  0  0  0  0  0  0
  146.5150  141.2650  155.3830 H   0  0  0  0  0  0  0  0  0  0  0  0
  146.2970  139.3470  154.7960 C   0  0  0  0  0  2  0  0  0  0  0  0
  145.3240  138.6450  153.8780 C   0  0  0  0  0  0  0  0  0  0  0  0
  143.9510  138.9330  153.9450 C   0  0  0  0  0  3  0  0  0  0  0  0
  143.0550  138.3190  153.0670 C   0  0  0  0  0  3  0  0  0  0  0  0
  143.5220  137.4130  152.1180 C   0  0  0  0  0  3  0  0  0  0  0  0
  144.8820  137.1140  152.0490 C   0  0  0  0  0  3  0  0  0  0  0  0
  145.7780  137.7270  152.9250 C   0  0  0  0  0  3  0  0  0  0  0  0
  145.7480  141.9110  152.0350 C   0  0  0  0  0  2  0  0  0  0  0  0
  143.7370  139.9420  149.4540 C   0  0  0  0  0  0  0  0  0  0  0  0
  144.0600  140.7990  150.5100 C   0  0  0  0  0  3  0  0  0  0  0  0
  145.3910  140.9360  150.9420 C   0  0  0  0  0  0  0  0  0  0  0  0
  146.4010  140.2070  150.3040 C   0  0  0  0  0  3  0  0  0  0  0  0
  146.0910  139.3540  149.2490 C   0  0  0  0  0  3  0  0  0  0  0  0
  144.7680  139.2250  148.8320 C   0  0  0  0  0  0  0  0  0  0  0  0
  141.3850  139.9260  149.8520 C   0  0  0  0  0  1  0  0  0  0  0  0
  142.4750  139.7480  148.9580 O   0  0  0  0  0  0  0  0  0  0  0  0
  144.4670  138.3900  147.7880 O   0  0  0  0  0  0  0  0  0  0  0  0
  144.2240  138.7480  146.9560 H   0  0  0  0  0  0  0  0  0  0  0  0
  1  2  1  0  0  0  0
  2  4  1  0  0  0  0
  2  3  1  1  0  0  0
  4  7  1  0  0  0  0
  4  6  1  0  0  0  0
  5  4  1  0  0  0  0
  8  9  1  0  0  0  0
  8  7  1  0  0  0  0
 10  9  2  0  0  0  0
 11 10  1  0  0  0  0
 12 11  2  0  0  0  0
 12 13  1  0  0  0  0
 13  8  2  0  0  0  0
 14  1  1  0  0  0  0
 15 16  1  0  0  0  0
 16 17  2  0  0  0  0
 17 14  1  0  0  0  0
 18 17  1  0  0  0  0
 19 18  2  0  0  0  0
 20 19  1  0  0  0  0
 20 15  2  0  0  0  0
 22 15  1  0  0  0  0
 22 21  1  0  0  0  0
 23 20  1  0  0  0  0
 24 23  1  0  0  0  0
M  END
>  <MODEL>
4

>  <REMARK>
 VINA RESULT:    -5.523      2.735      5.347
 INTER + INTRA:         -10.545
 INTER:                  -8.084
 INTRA:                  -2.461
 UNBOUND:                -2.601
  Name = CHEMBL1302256
  10 active torsions:
  status: ('A' for Active; 'I' for Inactive)
    1  A    between atoms: C_1  and  O_2
    2  A    between atoms: O_2  and  C_3
    3  A    between atoms: C_5  and  C_6
    4  A    between atoms: C_6  and  C_7
    5  A    between atoms: C_7  and  C_8
    6  A    between atoms: C_8  and  C_9
    7  A    between atoms: C_8  and  N_10
    8  A    between atoms: N_10  and  C_11
    9  A    between atoms: C_11  and  C_12
   10  A    between atoms: C_20  and  O_21
                            x       y       z     vdW  Elec       q    Type
                         _______ _______ _______ _____ _____    ______ ____

>  <TORSDO>
F 8

>  <SCORE>
-5.523

>  <RMSD_LB>
2.735

>  <RMSD_UB>
5.347

$$$$
CHEMBL1302256
 OpenBabel10172500073D

 24 25  0  0  1  0  0  0  0  0999 V2000
  135.0770  132.8460  146.3610 C   0  0  0  0  0  2  0  0  0  0  0  0
  136.5320  132.3630  146.1600 C   0  0  1  0  0  3  0  0  0  0  0  0
  136.6640  131.5740  144.8510 C   0  0  0  0  0  1  0  0  0  0  0  0
  137.5350  133.4360  146.1660 N   0  0  0  0  0  4  0  0  0  0  0  0
  137.1040  134.2860  145.8020 H   0  0  0  0  0  0  0  0  0  0  0  0
  138.3160  133.1250  145.5870 H   0  0  0  0  0  0  0  0  0  0  0  0
  138.0690  133.7190  147.4990 C   0  0  0  0  0  2  0  0  0  0  0  0
  137.5070  134.9990  148.0740 C   0  0  0  0  0  0  0  0  0  0  0  0
  136.9370  135.9670  147.2310 C   0  0  0  0  0  3  0  0  0  0  0  0
  136.3780  137.1290  147.7640 C   0  0  0  0  0  3  0  0  0  0  0  0
  136.3820  137.3350  149.1420 C   0  0  0  0  0  3  0  0  0  0  0  0
  136.9520  136.3840  149.9870 C   0  0  0  0  0  3  0  0  0  0  0  0
  137.5120  135.2220  149.4550 C   0  0  0  0  0  3  0  0  0  0  0  0
  134.5850  132.7130  147.8070 C   0  0  0  0  0  2  0  0  0  0  0  0
  133.3590  135.4230  150.2030 C   0  0  0  0  0  0  0  0  0  0  0  0
  133.9180  134.2370  149.7170 C   0  0  0  0  0  3  0  0  0  0  0  0
  133.9220  133.9590  148.3380 C   0  0  0  0  0  0  0  0  0  0  0  0
  133.3640  134.8820  147.4470 C   0  0  0  0  0  3  0  0  0  0  0  0
  132.8090  136.0670  147.9210 C   0  0  0  0  0  3  0  0  0  0  0  0
  132.8090  136.3310  149.2890 C   0  0  0  0  0  0  0  0  0  0  0  0
  133.6420  134.7930  152.4870 C   0  0  0  0  0  1  0  0  0  0  0  0
  133.3150  135.7850  151.5240 O   0  0  0  0  0  0  0  0  0  0  0  0
  132.2680  137.5020  149.7520 O   0  0  0  0  0  0  0  0  0  0  0  0
  132.8260  138.2270  149.9550 H   0  0  0  0  0  0  0  0  0  0  0  0
  1 14  1  0  0  0  0
  2  3  1  6  0  0  0
  2  4  1  0  0  0  0
  2  1  1  0  0  0  0
  4  7  1  0  0  0  0
  5  4  1  0  0  0  0
  6  4  1  0  0  0  0
  7  8  1  0  0  0  0
  8 13  1  0  0  0  0
  9 10  1  0  0  0  0
  9  8  2  0  0  0  0
 10 11  2  0  0  0  0
 11 12  1  0  0  0  0
 13 12  2  0  0  0  0
 14 17  1  0  0  0  0
 15 22  1  0  0  0  0
 16 15  1  0  0  0  0
 17 16  2  0  0  0  0
 18 19  2  0  0  0  0
 18 17  1  0  0  0  0
 19 20  1  0  0  0  0
 20 23  1  0  0  0  0
 20 15  2  0  0  0  0
 22 21  1  0  0  0  0
 23 24  1  0  0  0  0
M  END
>  <MODEL>
5

>  <REMARK>
 VINA RESULT:    -5.387     10.860     13.023
 INTER + INTRA:         -10.349
 INTER:                  -7.934
 INTRA:                  -2.415
 UNBOUND:                -2.601
  Name = CHEMBL1302256
  10 active torsions:
  status: ('A' for Active; 'I' for Inactive)
    1  A    between atoms: C_1  and  O_2
    2  A    between atoms: O_2  and  C_3
    3  A    between atoms: C_5  and  C_6
    4  A    between atoms: C_6  and  C_7
    5  A    between atoms: C_7  and  C_8
    6  A    between atoms: C_8  and  C_9
    7  A    between atoms: C_8  and  N_10
    8  A    between atoms: N_10  and  C_11
    9  A    between atoms: C_11  and  C_12
   10  A    between atoms: C_20  and  O_21
                            x       y       z     vdW  Elec       q    Type
                         _______ _______ _______ _____ _____    ______ ____

>  <TORSDO>
F 8

>  <SCORE>
-5.387

>  <RMSD_LB>
10.860

>  <RMSD_UB>
13.023

$$$$
CHEMBL1302256
 OpenBabel10172500073D

 24 25  0  0  1  0  0  0  0  0999 V2000
  147.4250  136.3570  150.7570 C   0  0  0  0  0  2  0  0  0  0  0  0
  147.1540  136.9180  149.3420 C   0  0  1  0  0  3  0  0  0  0  0  0
  146.6900  135.8020  148.3970 C   0  0  0  0  0  1  0  0  0  0  0  0
  146.1700  138.0080  149.2990 N   0  0  0  0  0  4  0  0  0  0  0  0
  145.7800  138.1310  150.2340 H   0  0  0  0  0  0  0  0  0  0  0  0
  145.4560  137.7470  148.6180 H   0  0  0  0  0  0  0  0  0  0  0  0
  146.7410  139.2830  148.8620 C   0  0  0  0  0  2  0  0  0  0  0  0
  146.6420  140.3450  149.9330 C   0  0  0  0  0  0  0  0  0  0  0  0
  146.2410  141.6500  149.6050 C   0  0  0  0  0  3  0  0  0  0  0  0
  146.1070  142.6200  150.6000 C   0  0  0  0  0  3  0  0  0  0  0  0
  146.3710  142.2960  151.9290 C   0  0  0  0  0  3  0  0  0  0  0  0
  146.7770  141.0050  152.2640 C   0  0  0  0  0  3  0  0  0  0  0  0
  146.9120  140.0340  151.2710 C   0  0  0  0  0  3  0  0  0  0  0  0
  146.1540  135.9160  151.4920 C   0  0  0  0  0  2  0  0  0  0  0  0
  146.3320  137.9580  154.7140 C   0  0  0  0  0  0  0  0  0  0  0  0
  146.6640  137.0680  153.6890 C   0  0  0  0  0  3  0  0  0  0  0  0
  145.7680  136.8240  152.6320 C   0  0  0  0  0  0  0  0  0  0  0  0
  144.5350  137.4840  152.6080 C   0  0  0  0  0  3  0  0  0  0  0  0
  144.1970  138.3760  153.6220 C   0  0  0  0  0  3  0  0  0  0  0  0
  145.0910  138.6070  154.6650 C   0  0  0  0  0  0  0  0  0  0  0  0
  148.3140  137.4870  155.9560 C   0  0  0  0  0  1  0  0  0  0  0  0
  147.1390  138.2650  155.7780 O   0  0  0  0  0  0  0  0  0  0  0  0
  144.7580  139.4910  155.6570 O   0  0  0  0  0  0  0  0  0  0  0  0
  144.4000  139.1750  156.4650 H   0  0  0  0  0  0  0  0  0  0  0  0
  1 14  1  0  0  0  0
  2  3  1  6  0  0  0
  2  1  1  0  0  0  0
  4  2  1  0  0  0  0
  4  5  1  0  0  0  0
  6  4  1  0  0  0  0
  7  4  1  0  0  0  0
  7  8  1  0  0  0  0
  8 13  1  0  0  0  0
  9  8  2  0  0  0  0
  9 10  1  0  0  0  0
 10 11  2  0  0  0  0
 11 12  1  0  0  0  0
 13 12  2  0  0  0  0
 14 17  1  0  0  0  0
 15 22  1  0  0  0  0
 16 15  2  0  0  0  0
 17 16  1  0  0  0  0
 18 17  2  0  0  0  0
 18 19  1  0  0  0  0
 19 20  2  0  0  0  0
 20 15  1  0  0  0  0
 20 23  1  0  0  0  0
 22 21  1  0  0  0  0
 23 24  1  0  0  0  0
M  END
>  <MODEL>
6

>  <REMARK>
 VINA RESULT:    -5.291      1.549      2.847
 INTER + INTRA:         -10.211
 INTER:                  -8.625
 INTRA:                  -1.587
 UNBOUND:                -2.601
  Name = CHEMBL1302256
  10 active torsions:
  status: ('A' for Active; 'I' for Inactive)
    1  A    between atoms: C_1  and  O_2
    2  A    between atoms: O_2  and  C_3
    3  A    between atoms: C_5  and  C_6
    4  A    between atoms: C_6  and  C_7
    5  A    between atoms: C_7  and  C_8
    6  A    between atoms: C_8  and  C_9
    7  A    between atoms: C_8  and  N_10
    8  A    between atoms: N_10  and  C_11
    9  A    between atoms: C_11  and  C_12
   10  A    between atoms: C_20  and  O_21
                            x       y       z     vdW  Elec       q    Type
                         _______ _______ _______ _____ _____    ______ ____

>  <TORSDO>
F 8

>  <SCORE>
-5.291

>  <RMSD_LB>
1.549

>  <RMSD_UB>
2.847

$$$$
CHEMBL1302256
 OpenBabel10172500073D

 24 25  0  0  1  0  0  0  0  0999 V2000
  145.3540  138.8570  149.1500 C   0  0  0  0  0  2  0  0  0  0  0  0
  144.3820  137.6890  148.8680 C   0  0  1  0  0  3  0  0  0  0  0  0
  145.0460  136.3430  149.1870 C   0  0  0  0  0  1  0  0  0  0  0  0
  143.1090  137.7680  149.5960 N   0  0  0  0  0  4  0  0  0  0  0  0
  142.3610  137.4540  148.9780 H   0  0  0  0  0  0  0  0  0  0  0  0
  142.9840  138.7380  149.8860 H   0  0  0  0  0  0  0  0  0  0  0  0
  143.0860  136.9470  150.8080 C   0  0  0  0  0  2  0  0  0  0  0  0
  141.9620  137.3410  151.7370 C   0  0  0  0  0  0  0  0  0  0  0  0
  142.2360  137.7390  153.0560 C   0  0  0  0  0  3  0  0  0  0  0  0
  141.2020  138.1450  153.9020 C   0  0  0  0  0  3  0  0  0  0  0  0
  139.8880  138.1570  153.4400 C   0  0  0  0  0  3  0  0  0  0  0  0
  139.6040  137.7570  152.1350 C   0  0  0  0  0  3  0  0  0  0  0  0
  140.6360  137.3500  151.2880 C   0  0  0  0  0  3  0  0  0  0  0  0
  144.6430  140.1740  149.4860 C   0  0  0  0  0  2  0  0  0  0  0  0
  145.2730  140.4380  153.2430 C   0  0  0  0  0  0  0  0  0  0  0  0
  144.8760  139.9440  151.9970 C   0  0  0  0  0  3  0  0  0  0  0  0
  145.0080  140.7310  150.8380 C   0  0  0  0  0  0  0  0  0  0  0  0
  145.5450  142.0180  150.9370 C   0  0  0  0  0  3  0  0  0  0  0  0
  145.9480  142.5180  152.1720 C   0  0  0  0  0  3  0  0  0  0  0  0
  145.8100  141.7300  153.3130 C   0  0  0  0  0  0  0  0  0  0  0  0
  146.1330  138.7060  154.6400 C   0  0  0  0  0  1  0  0  0  0  0  0
  145.1920  139.7470  154.4230 O   0  0  0  0  0  0  0  0  0  0  0  0
  146.2140  142.2230  154.5260 O   0  0  0  0  0  0  0  0  0  0  0  0
  145.5770  142.4620  155.1710 H   0  0  0  0  0  0  0  0  0  0  0  0
  1 14  1  0  0  0  0
  2  1  1  0  0  0  0
  2  3  1  1  0  0  0
  2  4  1  0  0  0  0
  4  6  1  0  0  0  0
  4  7  1  0  0  0  0
  5  4  1  0  0  0  0
  7  8  1  0  0  0  0
  8  9  1  0  0  0  0
  9 10  2  0  0  0  0
 11 10  1  0  0  0  0
 12 11  2  0  0  0  0
 13  8  2  0  0  0  0
 13 12  1  0  0  0  0
 14 17  1  0  0  0  0
 15 20  1  0  0  0  0
 15 22  1  0  0  0  0
 16 15  2  0  0  0  0
 17 18  2  0  0  0  0
 17 16  1  0  0  0  0
 18 19  1  0  0  0  0
 19 20  2  0  0  0  0
 20 23  1  0  0  0  0
 22 21  1  0  0  0  0
 23 24  1  0  0  0  0
M  END
>  <MODEL>
7

>  <REMARK>
 VINA RESULT:    -5.034      2.320      5.137
 INTER + INTRA:          -9.842
 INTER:                  -8.675
 INTRA:                  -1.167
 UNBOUND:                -2.601
  Name = CHEMBL1302256
  10 active torsions:
  status: ('A' for Active; 'I' for Inactive)
    1  A    between atoms: C_1  and  O_2
    2  A    between atoms: O_2  and  C_3
    3  A    between atoms: C_5  and  C_6
    4  A    between atoms: C_6  and  C_7
    5  A    between atoms: C_7  and  C_8
    6  A    between atoms: C_8  and  C_9
    7  A    between atoms: C_8  and  N_10
    8  A    between atoms: N_10  and  C_11
    9  A    between atoms: C_11  and  C_12
   10  A    between atoms: C_20  and  O_21
                            x       y       z     vdW  Elec       q    Type
                         _______ _______ _______ _____ _____    ______ ____

>  <TORSDO>
F 8

>  <SCORE>
-5.034

>  <RMSD_LB>
2.320

>  <RMSD_UB>
5.137

$$$$
CHEMBL1302256
 OpenBabel10172500073D

 24 25  0  0  1  0  0  0  0  0999 V2000
  143.9150  140.4330  150.0140 C   0  0  0  0  0  2  0  0  0  0  0  0
  143.6970  138.9740  149.5510 C   0  0  1  0  0  3  0  0  0  0  0  0
  142.8160  138.9310  148.2960 C   0  0  0  0  0  1  0  0  0  0  0  0
  144.9350  138.2310  149.2810 N   0  0  0  0  0  4  0  0  0  0  0  0
  145.7260  138.7870  149.6070 H   0  0  0  0  0  0  0  0  0  0  0  0
  144.9750  138.0610  148.2750 H   0  0  0  0  0  0  0  0  0  0  0  0
  144.9800  136.9260  149.9430 C   0  0  0  0  0  2  0  0  0  0  0  0
  145.4270  137.0360  151.3820 C   0  0  0  0  0  0  0  0  0  0  0  0
  144.4940  136.9390  152.4260 C   0  0  0  0  0  3  0  0  0  0  0  0
  144.9110  136.9960  153.7570 C   0  0  0  0  0  3  0  0  0  0  0  0
  146.2630  137.1520  154.0560 C   0  0  0  0  0  3  0  0  0  0  0  0
  147.1970  137.2580  153.0280 C   0  0  0  0  0  3  0  0  0  0  0  0
  146.7810  137.2010  151.6970 C   0  0  0  0  0  3  0  0  0  0  0  0
  144.2760  140.5520  151.5000 C   0  0  0  0  0  2  0  0  0  0  0  0
  147.5910  141.3330  153.2280 C   0  0  0  0  0  0  0  0  0  0  0  0
  146.2680  140.9340  153.0160 C   0  0  0  0  0  3  0  0  0  0  0  0
  145.6800  141.0450  151.7430 C   0  0  0  0  0  0  0  0  0  0  0  0
  146.4300  141.5570  150.6800 C   0  0  0  0  0  3  0  0  0  0  0  0
  147.7500  141.9530  150.8790 C   0  0  0  0  0  3  0  0  0  0  0  0
  148.3210  141.8410  152.1450 C   0  0  0  0  0  0  0  0  0  0  0  0
  148.5470  139.9630  154.9310 C   0  0  0  0  0  1  0  0  0  0  0  0
  148.2510  141.2570  154.4260 O   0  0  0  0  0  0  0  0  0  0  0  0
  149.6220  142.2250  152.3360 O   0  0  0  0  0  0  0  0  0  0  0  0
  150.2270  141.6400  152.7490 H   0  0  0  0  0  0  0  0  0  0  0  0
  1 14  1  0  0  0  0
  2  3  1  6  0  0  0
  2  1  1  0  0  0  0
  4  2  1  0  0  0  0
  4  5  1  0  0  0  0
  4  7  1  0  0  0  0
  6  4  1  0  0  0  0
  7  8  1  0  0  0  0
  8 13  2  0  0  0  0
  8  9  1  0  0  0  0
  9 10  2  0  0  0  0
 10 11  1  0  0  0  0
 12 11  2  0  0  0  0
 13 12  1  0  0  0  0
 14 17  1  0  0  0  0
 15 22  1  0  0  0  0
 16 15  1  0  0  0  0
 17 16  2  0  0  0  0
 18 19  2  0  0  0  0
 18 17  1  0  0  0  0
 19 20  1  0  0  0  0
 20 23  1  0  0  0  0
 20 15  2  0  0  0  0
 22 21  1  0  0  0  0
 23 24  1  0  0  0  0
M  END
>  <MODEL>
8

>  <REMARK>
 VINA RESULT:    -4.898      2.192      4.409
 INTER + INTRA:          -9.647
 INTER:                  -7.776
 INTRA:                  -1.871
 UNBOUND:                -2.601
  Name = CHEMBL1302256
  10 active torsions:
  status: ('A' for Active; 'I' for Inactive)
    1  A    between atoms: C_1  and  O_2
    2  A    between atoms: O_2  and  C_3
    3  A    between atoms: C_5  and  C_6
    4  A    between atoms: C_6  and  C_7
    5  A    between atoms: C_7  and  C_8
    6  A    between atoms: C_8  and  C_9
    7  A    between atoms: C_8  and  N_10
    8  A    between atoms: N_10  and  C_11
    9  A    between atoms: C_11  and  C_12
   10  A    between atoms: C_20  and  O_21
                            x       y       z     vdW  Elec       q    Type
                         _______ _______ _______ _____ _____    ______ ____

>  <TORSDO>
F 8

>  <SCORE>
-4.898

>  <RMSD_LB>
2.192

>  <RMSD_UB>
4.409

$$$$
CHEMBL1302256
 OpenBabel10172500073D

 24 25  0  0  1  0  0  0  0  0999 V2000
  145.8760  140.8640  149.4000 C   0  0  0  0  0  2  0  0  0  0  0  0
  146.5850  141.8360  150.3710 C   0  0  1  0  0  3  0  0  0  0  0  0
  145.5600  142.5860  151.2320 C   0  0  0  0  0  1  0  0  0  0  0  0
  147.5670  141.2000  151.2590 N   0  0  0  0  0  4  0  0  0  0  0  0
  148.3380  141.8520  151.4110 H   0  0  0  0  0  0  0  0  0  0  0  0
  147.8770  140.3410  150.8040 H   0  0  0  0  0  0  0  0  0  0  0  0
  147.0110  140.8260  152.5600 C   0  0  0  0  0  2  0  0  0  0  0  0
  146.7050  139.3490  152.6420 C   0  0  0  0  0  0  0  0  0  0  0  0
  147.7340  138.4020  152.5140 C   0  0  0  0  0  3  0  0  0  0  0  0
  147.4600  137.0380  152.6330 C   0  0  0  0  0  3  0  0  0  0  0  0
  146.1580  136.6090  152.8800 C   0  0  0  0  0  3  0  0  0  0  0  0
  145.1280  137.5400  153.0010 C   0  0  0  0  0  3  0  0  0  0  0  0
  145.4010  138.9040  152.8820 C   0  0  0  0  0  3  0  0  0  0  0  0
  146.7400  139.6620  149.0040 C   0  0  0  0  0  2  0  0  0  0  0  0
  143.9880  137.0450  149.4110 C   0  0  0  0  0  0  0  0  0  0  0  0
  144.6450  138.2760  149.3280 C   0  0  0  0  0  3  0  0  0  0  0  0
  146.0410  138.3350  149.1610 C   0  0  0  0  0  0  0  0  0  0  0  0
  146.7750  137.1480  149.0750 C   0  0  0  0  0  3  0  0  0  0  0  0
  146.1300  135.9170  149.1520 C   0  0  0  0  0  3  0  0  0  0  0  0
  144.7480  135.8710  149.3190 C   0  0  0  0  0  0  0  0  0  0  0  0
  142.0820  137.1900  150.8370 C   0  0  0  0  0  1  0  0  0  0  0  0
  142.6360  136.8860  149.5660 O   0  0  0  0  0  0  0  0  0  0  0  0
  144.1160  134.6570  149.3880 O   0  0  0  0  0  0  0  0  0  0  0  0
  143.2160  134.6120  149.6490 H   0  0  0  0  0  0  0  0  0  0  0  0
  1  2  1  0  0  0  0
  2  3  1  1  0  0  0
  2  4  1  0  0  0  0
  4  5  1  0  0  0  0
  4  7  1  0  0  0  0
  6  4  1  0  0  0  0
  7  8  1  0  0  0  0
  8 13  1  0  0  0  0
  9 10  1  0  0  0  0
  9  8  2  0  0  0  0
 10 11  2  0  0  0  0
 11 12  1  0  0  0  0
 13 12  2  0  0  0  0
 14 17  1  0  0  0  0
 14  1  1  0  0  0  0
 15 22  1  0  0  0  0
 16 15  1  0  0  0  0
 17 16  2  0  0  0  0
 18 19  2  0  0  0  0
 18 17  1  0  0  0  0
 19 20  1  0  0  0  0
 20 23  1  0  0  0  0
 20 15  2  0  0  0  0
 22 21  1  0  0  0  0
 23 24  1  0  0  0  0
M  END
>  <MODEL>
9

>  <REMARK>
 VINA RESULT:    -4.836      2.591      4.579
 INTER + INTRA:          -9.557
 INTER:                  -6.956
 INTRA:                  -2.601
 UNBOUND:                -2.601
  Name = CHEMBL1302256
  10 active torsions:
  status: ('A' for Active; 'I' for Inactive)
    1  A    between atoms: C_1  and  O_2
    2  A    between atoms: O_2  and  C_3
    3  A    between atoms: C_5  and  C_6
    4  A    between atoms: C_6  and  C_7
    5  A    between atoms: C_7  and  C_8
    6  A    between atoms: C_8  and  C_9
    7  A    between atoms: C_8  and  N_10
    8  A    between atoms: N_10  and  C_11
    9  A    between atoms: C_11  and  C_12
   10  A    between atoms: C_20  and  O_21
                            x       y       z     vdW  Elec       q    Type
                         _______ _______ _______ _____ _____    ______ ____

>  <TORSDO>
F 8

>  <SCORE>
-4.836

>  <RMSD_LB>
2.591

>  <RMSD_UB>
4.579

$$$$
