CHEMBL4226647
 OpenBabel10162523513D

 28 28  0  0  0  0  0  0  0  0999 V2000
  134.4800  135.4590  153.9000 C   0  0  0  0  0  0  0  0  0  0  0  0
  133.8100  136.3950  154.3290 O   0  0  0  0  0  0  0  0  0  0  0  0
  135.8350  135.3410  154.1660 N   0  0  0  0  0  0  0  0  0  0  0  0
  136.3350  134.5690  153.8180 H   0  0  0  0  0  0  0  0  0  0  0  0
  133.8470  134.3310  153.0630 C   0  0  0  0  0  2  0  0  0  0  0  0
  133.2520  134.8700  151.8780 O   0  0  0  0  0  0  0  0  0  0  0  0
  133.3470  134.0830  150.7750 C   0  0  0  0  0  0  0  0  0  0  0  0
  132.3720  133.6570  150.1350 O   0  0  0  0  0  0  0  0  0  0  0  0
  134.7870  133.8540  150.3740 C   0  0  0  0  0  2  0  0  0  0  0  0
  135.5060  135.1640  150.0940 C   0  0  0  0  0  2  0  0  0  0  0  0
  135.2470  135.6760  148.6800 C   0  0  0  0  0  2  0  0  0  0  0  0
  134.6170  137.0640  148.7230 C   0  0  0  0  0  2  0  0  0  0  0  0
  133.1010  136.9680  148.6430 C   0  0  0  0  0  2  0  0  0  0  0  0
  132.6690  136.5000  147.2600 C   0  0  0  0  0  2  0  0  0  0  0  0
  132.9130  137.5960  146.2320 C   0  0  0  0  0  2  0  0  0  0  0  0
  134.2050  135.7410  145.1760 C   0  0  0  0  0  1  0  0  0  0  0  0
  133.3990  137.0000  144.9180 C   0  0  0  0  0  2  0  0  0  0  0  0
  136.5230  136.3480  154.9590 C   0  0  0  0  0  2  0  0  0  0  0  0
  137.5280  137.1520  154.1620 C   0  0  0  0  0  0  0  0  0  0  0  0
  137.5260  137.0800  152.7610 C   0  0  0  0  0  3  0  0  0  0  0  0
  138.4380  137.8220  152.0060 C   0  0  0  0  0  3  0  0  0  0  0  0
  139.3760  138.6410  152.6370 C   0  0  0  0  0  0  0  0  0  0  0  0
  139.4280  138.7140  154.0320 C   0  0  0  0  0  0  0  0  0  0  0  0
  138.4970  137.9670  154.7820 C   0  0  0  0  0  3  0  0  0  0  0  0
  140.2350  139.3590  151.8510 O   0  0  0  0  0  0  0  0  0  0  0  0
  140.2280  140.2950  151.8840 H   0  0  0  0  0  0  0  0  0  0  0  0
  140.3110  139.4540  154.7860 O   0  0  0  0  0  0  0  0  0  0  0  0
  141.4100  138.7510  155.3670 C   0  0  0  0  0  1  0  0  0  0  0  0
  1  3  1  0  0  0  0
  1  2  2  0  0  0  0
  3 18  1  0  0  0  0
  4  3  1  0  0  0  0
  5  1  1  0  0  0  0
  6  5  1  0  0  0  0
  7  6  1  0  0  0  0
  8  7  2  0  0  0  0
  9  7  1  0  0  0  0
 10  9  1  0  0  0  0
 11 12  1  0  0  0  0
 11 10  1  0  0  0  0
 13 12  1  0  0  0  0
 14 13  1  0  0  0  0
 15 14  1  0  0  0  0
 17 16  1  0  0  0  0
 17 15  1  0  0  0  0
 19 24  1  0  0  0  0
 19 18  1  0  0  0  0
 20 19  2  0  0  0  0
 21 22  2  0  0  0  0
 21 20  1  0  0  0  0
 22 23  1  0  0  0  0
 23 24  2  0  0  0  0
 23 27  1  0  0  0  0
 25 26  1  0  0  0  0
 25 22  1  0  0  0  0
 27 28  1  0  0  0  0
M  END
>  <MODEL>
1

>  <REMARK>
 VINA RESULT:    -6.366      0.000      0.000
 INTER + INTRA:         -12.726
 INTER:                 -11.142
 INTRA:                  -1.584
 UNBOUND:                -0.964
  Name = CHEMBL4226647
  17 active torsions:
  status: ('A' for Active; 'I' for Inactive)
    1  A    between atoms: C_1  and  C_2
    2  A    between atoms: C_2  and  C_3
    3  A    between atoms: C_3  and  C_4
    4  A    between atoms: C_4  and  C_5
    5  A    between atoms: C_5  and  C_6
    6  A    between atoms: C_6  and  C_7
    7  A    between atoms: C_7  and  C_8
    8  A    between atoms: C_8  and  C_9
    9  A    between atoms: C_9  and  C_10
   10  A    between atoms: C_10  and  O_12
   11  A    between atoms: O_12  and  C_13
   12  A    between atoms: C_13  and  C_14
   13  A    between atoms: N_16  and  C_17
   14  A    between atoms: C_17  and  C_18
   15  A    between atoms: C_21  and  O_22
   16  A    between atoms: C_23  and  O_24
   17  A    between atoms: O_24  and  C_25
                            x       y       z     vdW  Elec       q    Type
                         _______ _______ _______ _____ _____    ______ ____

>  <TORSDO>
F 15

>  <SCORE>
-6.366

>  <RMSD_LB>
0.000

>  <RMSD_UB>
0.000

$$$$
CHEMBL4226647
 OpenBabel10162523513D

 28 28  0  0  0  0  0  0  0  0999 V2000
  140.0590  137.8600  155.8840 C   0  0  0  0  0  0  0  0  0  0  0  0
  140.5920  137.2420  156.8020 O   0  0  0  0  0  0  0  0  0  0  0  0
  138.6820  137.8960  155.7230 N   0  0  0  0  0  0  0  0  0  0  0  0
  138.2910  138.4150  154.9840 H   0  0  0  0  0  0  0  0  0  0  0  0
  140.8870  138.6680  154.8670 C   0  0  0  0  0  2  0  0  0  0  0  0
  141.3640  137.8090  153.8250 O   0  0  0  0  0  0  0  0  0  0  0  0
  140.6990  137.9090  152.6450 C   0  0  0  0  0  0  0  0  0  0  0  0
  139.4730  137.7560  152.5200 O   0  0  0  0  0  0  0  0  0  0  0  0
  141.6220  138.3090  151.5160 C   0  0  0  0  0  2  0  0  0  0  0  0
  142.4530  137.1330  151.0290 C   0  0  0  0  0  2  0  0  0  0  0  0
  143.9480  137.3520  151.2440 C   0  0  0  0  0  2  0  0  0  0  0  0
  144.5740  137.9990  150.0130 C   0  0  0  0  0  2  0  0  0  0  0  0
  145.4980  139.1380  150.4170 C   0  0  0  0  0  2  0  0  0  0  0  0
  144.7970  140.4790  150.2430 C   0  0  0  0  0  2  0  0  0  0  0  0
  145.8150  141.6110  150.2520 C   0  0  0  0  0  2  0  0  0  0  0  0
  146.4210  142.2320  152.5920 C   0  0  0  0  0  1  0  0  0  0  0  0
  145.5400  142.5680  151.4050 C   0  0  0  0  0  2  0  0  0  0  0  0
  137.8120  137.1750  156.6390 C   0  0  0  0  0  2  0  0  0  0  0  0
  136.7550  136.3510  155.9360 C   0  0  0  0  0  0  0  0  0  0  0  0
  136.7460  136.2770  154.5360 C   0  0  0  0  0  3  0  0  0  0  0  0
  135.7860  135.5130  153.8670 C   0  0  0  0  0  3  0  0  0  0  0  0
  134.8110  134.8180  154.5850 C   0  0  0  0  0  0  0  0  0  0  0  0
  134.7710  134.8930  155.9800 C   0  0  0  0  0  0  0  0  0  0  0  0
  135.7500  135.6600  156.6440 C   0  0  0  0  0  3  0  0  0  0  0  0
  133.9060  134.0710  153.8830 O   0  0  0  0  0  0  0  0  0  0  0  0
  133.5740  134.3830  153.0640 H   0  0  0  0  0  0  0  0  0  0  0  0
  133.8570  134.2850  156.8120 O   0  0  0  0  0  0  0  0  0  0  0  0
  133.9220  134.6230  158.1980 C   0  0  0  0  0  1  0  0  0  0  0  0
  1  2  2  0  0  0  0
  3  1  1  0  0  0  0
  3 18  1  0  0  0  0
  4  3  1  0  0  0  0
  5  1  1  0  0  0  0
  6  5  1  0  0  0  0
  7  6  1  0  0  0  0
  8  7  2  0  0  0  0
  9  7  1  0  0  0  0
 10 11  1  0  0  0  0
 10  9  1  0  0  0  0
 12 13  1  0  0  0  0
 12 11  1  0  0  0  0
 14 15  1  0  0  0  0
 14 13  1  0  0  0  0
 15 17  1  0  0  0  0
 17 16  1  0  0  0  0
 19 18  1  0  0  0  0
 19 24  1  0  0  0  0
 20 19  2  0  0  0  0
 21 20  1  0  0  0  0
 21 22  2  0  0  0  0
 22 23  1  0  0  0  0
 23 24  2  0  0  0  0
 23 27  1  0  0  0  0
 25 22  1  0  0  0  0
 26 25  1  0  0  0  0
 27 28  1  0  0  0  0
M  END
>  <MODEL>
2

>  <REMARK>
 VINA RESULT:    -6.252      4.433      8.909
 INTER + INTRA:         -12.515
 INTER:                 -11.391
 INTRA:                  -1.124
 UNBOUND:                -0.964
  Name = CHEMBL4226647
  17 active torsions:
  status: ('A' for Active; 'I' for Inactive)
    1  A    between atoms: C_1  and  C_2
    2  A    between atoms: C_2  and  C_3
    3  A    between atoms: C_3  and  C_4
    4  A    between atoms: C_4  and  C_5
    5  A    between atoms: C_5  and  C_6
    6  A    between atoms: C_6  and  C_7
    7  A    between atoms: C_7  and  C_8
    8  A    between atoms: C_8  and  C_9
    9  A    between atoms: C_9  and  C_10
   10  A    between atoms: C_10  and  O_12
   11  A    between atoms: O_12  and  C_13
   12  A    between atoms: C_13  and  C_14
   13  A    between atoms: N_16  and  C_17
   14  A    between atoms: C_17  and  C_18
   15  A    between atoms: C_21  and  O_22
   16  A    between atoms: C_23  and  O_24
   17  A    between atoms: O_24  and  C_25
                            x       y       z     vdW  Elec       q    Type
                         _______ _______ _______ _____ _____    ______ ____

>  <TORSDO>
F 15

>  <SCORE>
-6.252

>  <RMSD_LB>
4.433

>  <RMSD_UB>
8.909

$$$$
CHEMBL4226647
 OpenBabel10162523513D

 28 28  0  0  0  0  0  0  0  0999 V2000
  140.1690  137.8650  155.7980 C   0  0  0  0  0  0  0  0  0  0  0  0
  140.6460  137.5630  156.8900 O   0  0  0  0  0  0  0  0  0  0  0  0
  138.8430  137.6180  155.4800 N   0  0  0  0  0  0  0  0  0  0  0  0
  138.4940  137.8890  154.6010 H   0  0  0  0  0  0  0  0  0  0  0  0
  141.0110  138.5740  154.7200 C   0  0  0  0  0  2  0  0  0  0  0  0
  140.5830  138.1670  153.4150 O   0  0  0  0  0  0  0  0  0  0  0  0
  141.5640  137.6760  152.6140 C   0  0  0  0  0  0  0  0  0  0  0  0
  142.7210  137.4350  152.9940 O   0  0  0  0  0  0  0  0  0  0  0  0
  141.0530  137.3830  151.2210 C   0  0  0  0  0  2  0  0  0  0  0  0
  139.5350  137.4180  151.1620 C   0  0  0  0  0  2  0  0  0  0  0  0
  139.0190  138.1530  149.9280 C   0  0  0  0  0  2  0  0  0  0  0  0
  137.4950  138.1160  149.8840 C   0  0  0  0  0  2  0  0  0  0  0  0
  136.9620  136.9680  150.7280 C   0  0  0  0  0  2  0  0  0  0  0  0
  136.4490  135.8450  149.8350 C   0  0  0  0  0  2  0  0  0  0  0  0
  136.3480  134.5480  150.6240 C   0  0  0  0  0  2  0  0  0  0  0  0
  134.1550  134.6250  149.4370 C   0  0  0  0  0  1  0  0  0  0  0  0
  134.9250  134.0080  150.5890 C   0  0  0  0  0  2  0  0  0  0  0  0
  137.9630  136.9640  156.4370 C   0  0  0  0  0  2  0  0  0  0  0  0
  136.7850  136.2700  155.7870 C   0  0  0  0  0  0  0  0  0  0  0  0
  136.6560  136.2750  154.3910 C   0  0  0  0  0  3  0  0  0  0  0  0
  135.5820  135.6310  153.7700 C   0  0  0  0  0  3  0  0  0  0  0  0
  134.6130  134.9790  154.5340 C   0  0  0  0  0  0  0  0  0  0  0  0
  134.6920  134.9790  155.9300 C   0  0  0  0  0  0  0  0  0  0  0  0
  135.7860  135.6250  156.5440 C   0  0  0  0  0  3  0  0  0  0  0  0
  133.5920  134.3490  153.8770 O   0  0  0  0  0  0  0  0  0  0  0  0
  133.4280  133.4390  154.0270 H   0  0  0  0  0  0  0  0  0  0  0  0
  133.8010  134.4020  156.8060 O   0  0  0  0  0  0  0  0  0  0  0  0
  133.9320  134.7540  158.1840 C   0  0  0  0  0  1  0  0  0  0  0  0
  1  2  2  0  0  0  0
  3  1  1  0  0  0  0
  3 18  1  0  0  0  0
  4  3  1  0  0  0  0
  5  1  1  0  0  0  0
  6  5  1  0  0  0  0
  7  8  2  0  0  0  0
  7  6  1  0  0  0  0
  9  7  1  0  0  0  0
 10  9  1  0  0  0  0
 11 10  1  0  0  0  0
 12 11  1  0  0  0  0
 12 13  1  0  0  0  0
 14 15  1  0  0  0  0
 14 13  1  0  0  0  0
 16 17  1  0  0  0  0
 17 15  1  0  0  0  0
 19 18  1  0  0  0  0
 19 24  1  0  0  0  0
 20 19  2  0  0  0  0
 21 20  1  0  0  0  0
 21 22  2  0  0  0  0
 22 23  1  0  0  0  0
 23 24  2  0  0  0  0
 23 27  1  0  0  0  0
 25 26  1  0  0  0  0
 25 22  1  0  0  0  0
 27 28  1  0  0  0  0
M  END
>  <MODEL>
3

>  <REMARK>
 VINA RESULT:    -6.243      2.547      6.402
 INTER + INTRA:         -12.498
 INTER:                 -10.894
 INTRA:                  -1.604
 UNBOUND:                -0.964
  Name = CHEMBL4226647
  17 active torsions:
  status: ('A' for Active; 'I' for Inactive)
    1  A    between atoms: C_1  and  C_2
    2  A    between atoms: C_2  and  C_3
    3  A    between atoms: C_3  and  C_4
    4  A    between atoms: C_4  and  C_5
    5  A    between atoms: C_5  and  C_6
    6  A    between atoms: C_6  and  C_7
    7  A    between atoms: C_7  and  C_8
    8  A    between atoms: C_8  and  C_9
    9  A    between atoms: C_9  and  C_10
   10  A    between atoms: C_10  and  O_12
   11  A    between atoms: O_12  and  C_13
   12  A    between atoms: C_13  and  C_14
   13  A    between atoms: N_16  and  C_17
   14  A    between atoms: C_17  and  C_18
   15  A    between atoms: C_21  and  O_22
   16  A    between atoms: C_23  and  O_24
   17  A    between atoms: O_24  and  C_25
                            x       y       z     vdW  Elec       q    Type
                         _______ _______ _______ _____ _____    ______ ____

>  <TORSDO>
F 15

>  <SCORE>
-6.243

>  <RMSD_LB>
2.547

>  <RMSD_UB>
6.402

$$$$
CHEMBL4226647
 OpenBabel10162523513D

 28 28  0  0  0  0  0  0  0  0999 V2000
  139.1270  138.1270  154.8450 C   0  0  0  0  0  0  0  0  0  0  0  0
  139.9360  138.5330  155.6770 O   0  0  0  0  0  0  0  0  0  0  0  0
  138.0700  137.2990  155.1890 N   0  0  0  0  0  0  0  0  0  0  0  0
  137.4340  137.0070  154.4970 H   0  0  0  0  0  0  0  0  0  0  0  0
  139.2160  138.5420  153.3640 C   0  0  0  0  0  2  0  0  0  0  0  0
  140.5400  138.9940  153.0570 O   0  0  0  0  0  0  0  0  0  0  0  0
  141.3470  138.0660  152.4810 C   0  0  0  0  0  0  0  0  0  0  0  0
  140.9410  137.1260  151.7790 O   0  0  0  0  0  0  0  0  0  0  0  0
  142.8090  138.3630  152.7330 C   0  0  0  0  0  2  0  0  0  0  0  0
  143.7140  137.4420  151.9310 C   0  0  0  0  0  2  0  0  0  0  0  0
  145.1420  137.4230  152.4670 C   0  0  0  0  0  2  0  0  0  0  0  0
  145.1390  137.3660  153.9910 C   0  0  0  0  0  2  0  0  0  0  0  0
  145.9410  138.5200  154.5720 C   0  0  0  0  0  2  0  0  0  0  0  0
  146.2320  139.5610  153.4990 C   0  0  0  0  0  2  0  0  0  0  0  0
  147.1750  140.6260  154.0380 C   0  0  0  0  0  2  0  0  0  0  0  0
  146.0390  142.1740  152.4440 C   0  0  0  0  0  1  0  0  0  0  0  0
  146.5770  142.0150  153.8530 C   0  0  0  0  0  2  0  0  0  0  0  0
  137.8920  136.8610  156.5650 C   0  0  0  0  0  2  0  0  0  0  0  0
  136.6350  136.0440  156.7730 C   0  0  0  0  0  0  0  0  0  0  0  0
  136.2550  135.6660  158.0690 C   0  0  0  0  0  3  0  0  0  0  0  0
  135.0930  134.9210  158.2850 C   0  0  0  0  0  3  0  0  0  0  0  0
  134.2940  134.5310  157.2090 C   0  0  0  0  0  0  0  0  0  0  0  0
  134.6570  134.8630  155.9000 C   0  0  0  0  0  0  0  0  0  0  0  0
  135.8280  135.6230  155.6960 C   0  0  0  0  0  3  0  0  0  0  0  0
  133.1580  133.8190  157.4750 O   0  0  0  0  0  0  0  0  0  0  0  0
  132.3910  133.9450  156.9520 H   0  0  0  0  0  0  0  0  0  0  0  0
  133.9840  134.5260  154.7470 O   0  0  0  0  0  0  0  0  0  0  0  0
  133.9370  135.5130  153.7150 C   0  0  0  0  0  1  0  0  0  0  0  0
  1  3  1  0  0  0  0
  1  2  2  0  0  0  0
  3 18  1  0  0  0  0
  4  3  1  0  0  0  0
  5  1  1  0  0  0  0
  6  5  1  0  0  0  0
  7  9  1  0  0  0  0
  7  6  1  0  0  0  0
  8  7  2  0  0  0  0
 10 11  1  0  0  0  0
 10  9  1  0  0  0  0
 11 12  1  0  0  0  0
 12 13  1  0  0  0  0
 14 15  1  0  0  0  0
 14 13  1  0  0  0  0
 16 17  1  0  0  0  0
 17 15  1  0  0  0  0
 18 19  1  0  0  0  0
 19 20  1  0  0  0  0
 20 21  2  0  0  0  0
 22 25  1  0  0  0  0
 22 21  1  0  0  0  0
 23 22  2  0  0  0  0
 24 23  1  0  0  0  0
 24 19  2  0  0  0  0
 26 25  1  0  0  0  0
 27 23  1  0  0  0  0
 28 27  1  0  0  0  0
M  END
>  <MODEL>
4

>  <REMARK>
 VINA RESULT:    -6.174      4.194      9.770
 INTER + INTRA:         -12.371
 INTER:                 -11.408
 INTRA:                  -0.963
 UNBOUND:                -0.964
  Name = CHEMBL4226647
  17 active torsions:
  status: ('A' for Active; 'I' for Inactive)
    1  A    between atoms: C_1  and  C_2
    2  A    between atoms: C_2  and  C_3
    3  A    between atoms: C_3  and  C_4
    4  A    between atoms: C_4  and  C_5
    5  A    between atoms: C_5  and  C_6
    6  A    between atoms: C_6  and  C_7
    7  A    between atoms: C_7  and  C_8
    8  A    between atoms: C_8  and  C_9
    9  A    between atoms: C_9  and  C_10
   10  A    between atoms: C_10  and  O_12
   11  A    between atoms: O_12  and  C_13
   12  A    between atoms: C_13  and  C_14
   13  A    between atoms: N_16  and  C_17
   14  A    between atoms: C_17  and  C_18
   15  A    between atoms: C_21  and  O_22
   16  A    between atoms: C_23  and  O_24
   17  A    between atoms: O_24  and  C_25
                            x       y       z     vdW  Elec       q    Type
                         _______ _______ _______ _____ _____    ______ ____

>  <TORSDO>
F 15

>  <SCORE>
-6.174

>  <RMSD_LB>
4.194

>  <RMSD_UB>
9.770

$$$$
CHEMBL4226647
 OpenBabel10162523513D

 28 28  0  0  0  0  0  0  0  0999 V2000
  146.9850  135.5440  149.8710 C   0  0  0  0  0  0  0  0  0  0  0  0
  148.1540  135.3420  150.1920 O   0  0  0  0  0  0  0  0  0  0  0  0
  145.9880  135.7420  150.8140 N   0  0  0  0  0  0  0  0  0  0  0  0
  145.0660  135.9170  150.5180 H   0  0  0  0  0  0  0  0  0  0  0  0
  146.5560  135.6260  148.3940 C   0  0  0  0  0  2  0  0  0  0  0  0
  146.0260  136.9240  148.1050 O   0  0  0  0  0  0  0  0  0  0  0  0
  146.9470  137.9200  148.0370 C   0  0  0  0  0  0  0  0  0  0  0  0
  147.8600  137.9710  147.1980 O   0  0  0  0  0  0  0  0  0  0  0  0
  146.6750  139.0030  149.0580 C   0  0  0  0  0  2  0  0  0  0  0  0
  146.7300  140.3880  148.4340 C   0  0  0  0  0  2  0  0  0  0  0  0
  146.0400  141.4400  149.2970 C   0  0  0  0  0  2  0  0  0  0  0  0
  144.9150  140.8080  150.1100 C   0  0  0  0  0  2  0  0  0  0  0  0
  144.8480  141.4230  151.5000 C   0  0  0  0  0  2  0  0  0  0  0  0
  145.9770  142.4270  151.6930 C   0  0  0  0  0  2  0  0  0  0  0  0
  146.6800  142.1830  153.0200 C   0  0  0  0  0  2  0  0  0  0  0  0
  148.3240  140.5000  152.1890 C   0  0  0  0  0  1  0  0  0  0  0  0
  148.1550  141.8790  152.7970 C   0  0  0  0  0  2  0  0  0  0  0  0
  146.2940  135.6970  152.2350 C   0  0  0  0  0  2  0  0  0  0  0  0
  145.7860  136.9040  152.9940 C   0  0  0  0  0  0  0  0  0  0  0  0
  146.6030  137.5200  153.9530 C   0  0  0  0  0  3  0  0  0  0  0  0
  146.1570  138.6420  154.6570 C   0  0  0  0  0  3  0  0  0  0  0  0
  144.8820  139.1620  154.4240 C   0  0  0  0  0  0  0  0  0  0  0  0
  144.0280  138.5550  153.4980 C   0  0  0  0  0  0  0  0  0  0  0  0
  144.4940  137.4300  152.7870 C   0  0  0  0  0  3  0  0  0  0  0  0
  144.5010  140.2710  155.1270 O   0  0  0  0  0  0  0  0  0  0  0  0
  145.1360  140.7590  155.6140 H   0  0  0  0  0  0  0  0  0  0  0  0
  142.7440  138.9400  153.1860 O   0  0  0  0  0  0  0  0  0  0  0  0
  141.6880  138.0930  153.6410 C   0  0  0  0  0  1  0  0  0  0  0  0
  1  2  2  0  0  0  0
  1  3  1  0  0  0  0
  3 18  1  0  0  0  0
  4  3  1  0  0  0  0
  5  1  1  0  0  0  0
  6  5  1  0  0  0  0
  7  6  1  0  0  0  0
  7  9  1  0  0  0  0
  8  7  2  0  0  0  0
 10  9  1  0  0  0  0
 10 11  1  0  0  0  0
 11 12  1  0  0  0  0
 12 13  1  0  0  0  0
 13 14  1  0  0  0  0
 14 15  1  0  0  0  0
 16 17  1  0  0  0  0
 17 15  1  0  0  0  0
 18 19  1  0  0  0  0
 19 20  1  0  0  0  0
 20 21  2  0  0  0  0
 22 21  1  0  0  0  0
 22 25  1  0  0  0  0
 23 22  2  0  0  0  0
 24 19  2  0  0  0  0
 24 23  1  0  0  0  0
 25 26  1  0  0  0  0
 27 23  1  0  0  0  0
 27 28  1  0  0  0  0
M  END
>  <MODEL>
5

>  <REMARK>
 VINA RESULT:    -6.164      8.156     11.833
 INTER + INTRA:         -12.353
 INTER:                  -9.794
 INTRA:                  -2.559
 UNBOUND:                -0.964
  Name = CHEMBL4226647
  17 active torsions:
  status: ('A' for Active; 'I' for Inactive)
    1  A    between atoms: C_1  and  C_2
    2  A    between atoms: C_2  and  C_3
    3  A    between atoms: C_3  and  C_4
    4  A    between atoms: C_4  and  C_5
    5  A    between atoms: C_5  and  C_6
    6  A    between atoms: C_6  and  C_7
    7  A    between atoms: C_7  and  C_8
    8  A    between atoms: C_8  and  C_9
    9  A    between atoms: C_9  and  C_10
   10  A    between atoms: C_10  and  O_12
   11  A    between atoms: O_12  and  C_13
   12  A    between atoms: C_13  and  C_14
   13  A    between atoms: N_16  and  C_17
   14  A    between atoms: C_17  and  C_18
   15  A    between atoms: C_21  and  O_22
   16  A    between atoms: C_23  and  O_24
   17  A    between atoms: O_24  and  C_25
                            x       y       z     vdW  Elec       q    Type
                         _______ _______ _______ _____ _____    ______ ____

>  <TORSDO>
F 15

>  <SCORE>
-6.164

>  <RMSD_LB>
8.156

>  <RMSD_UB>
11.833

$$$$
CHEMBL4226647
 OpenBabel10162523513D

 28 28  0  0  0  0  0  0  0  0999 V2000
  145.2810  139.8020  148.7660 C   0  0  0  0  0  0  0  0  0  0  0  0
  145.5220  140.7500  148.0210 O   0  0  0  0  0  0  0  0  0  0  0  0
  145.1010  139.9670  150.1300 N   0  0  0  0  0  0  0  0  0  0  0  0
  144.8950  139.1860  150.6920 H   0  0  0  0  0  0  0  0  0  0  0  0
  145.1300  138.3680  148.2240 C   0  0  0  0  0  2  0  0  0  0  0  0
  146.3500  137.6400  148.4080 O   0  0  0  0  0  0  0  0  0  0  0  0
  146.2030  136.3870  148.9100 C   0  0  0  0  0  0  0  0  0  0  0  0
  145.3100  135.5970  148.5660 O   0  0  0  0  0  0  0  0  0  0  0  0
  147.3100  136.0420  149.8820 C   0  0  0  0  0  2  0  0  0  0  0  0
  147.1200  136.7400  151.2180 C   0  0  0  0  0  2  0  0  0  0  0  0
  145.9860  136.1280  152.0360 C   0  0  0  0  0  2  0  0  0  0  0  0
  146.0680  136.5880  153.4880 C   0  0  0  0  0  2  0  0  0  0  0  0
  144.7150  137.0920  153.9680 C   0  0  0  0  0  2  0  0  0  0  0  0
  143.9790  137.8000  152.8380 C   0  0  0  0  0  2  0  0  0  0  0  0
  142.4790  137.5820  152.9670 C   0  0  0  0  0  2  0  0  0  0  0  0
  142.6810  136.8040  150.6050 C   0  0  0  0  0  1  0  0  0  0  0  0
  141.8200  137.5650  151.5940 C   0  0  0  0  0  2  0  0  0  0  0  0
  145.2110  141.2840  150.7370 C   0  0  0  0  0  2  0  0  0  0  0  0
  146.5890  141.5730  151.2920 C   0  0  0  0  0  0  0  0  0  0  0  0
  147.5140  142.2930  150.5220 C   0  0  0  0  0  3  0  0  0  0  0  0
  148.7880  142.5800  151.0190 C   0  0  0  0  0  3  0  0  0  0  0  0
  149.1650  142.1440  152.2910 C   0  0  0  0  0  0  0  0  0  0  0  0
  148.2800  141.3970  153.0750 C   0  0  0  0  0  0  0  0  0  0  0  0
  146.9940  141.1220  152.5650 C   0  0  0  0  0  3  0  0  0  0  0  0
  150.4160  142.4660  152.7370 O   0  0  0  0  0  0  0  0  0  0  0  0
  150.8450  141.9210  153.3670 H   0  0  0  0  0  0  0  0  0  0  0  0
  148.5220  140.8820  154.3280 O   0  0  0  0  0  0  0  0  0  0  0  0
  148.2230  139.5000  154.5260 C   0  0  0  0  0  1  0  0  0  0  0  0
  1  3  1  0  0  0  0
  2  1  2  0  0  0  0
  3  4  1  0  0  0  0
  3 18  1  0  0  0  0
  5  6  1  0  0  0  0
  5  1  1  0  0  0  0
  6  7  1  0  0  0  0
  7  9  1  0  0  0  0
  8  7  2  0  0  0  0
  9 10  1  0  0  0  0
 10 11  1  0  0  0  0
 11 12  1  0  0  0  0
 12 13  1  0  0  0  0
 14 15  1  0  0  0  0
 14 13  1  0  0  0  0
 16 17  1  0  0  0  0
 17 15  1  0  0  0  0
 18 19  1  0  0  0  0
 19 24  1  0  0  0  0
 20 21  1  0  0  0  0
 20 19  2  0  0  0  0
 21 22  2  0  0  0  0
 22 25  1  0  0  0  0
 22 23  1  0  0  0  0
 23 27  1  0  0  0  0
 24 23  2  0  0  0  0
 25 26  1  0  0  0  0
 27 28  1  0  0  0  0
M  END
>  <MODEL>
6

>  <REMARK>
 VINA RESULT:    -6.131      8.429     11.521
 INTER + INTRA:         -12.292
 INTER:                 -10.417
 INTRA:                  -1.876
 UNBOUND:                -0.964
  Name = CHEMBL4226647
  17 active torsions:
  status: ('A' for Active; 'I' for Inactive)
    1  A    between atoms: C_1  and  C_2
    2  A    between atoms: C_2  and  C_3
    3  A    between atoms: C_3  and  C_4
    4  A    between atoms: C_4  and  C_5
    5  A    between atoms: C_5  and  C_6
    6  A    between atoms: C_6  and  C_7
    7  A    between atoms: C_7  and  C_8
    8  A    between atoms: C_8  and  C_9
    9  A    between atoms: C_9  and  C_10
   10  A    between atoms: C_10  and  O_12
   11  A    between atoms: O_12  and  C_13
   12  A    between atoms: C_13  and  C_14
   13  A    between atoms: N_16  and  C_17
   14  A    between atoms: C_17  and  C_18
   15  A    between atoms: C_21  and  O_22
   16  A    between atoms: C_23  and  O_24
   17  A    between atoms: O_24  and  C_25
                            x       y       z     vdW  Elec       q    Type
                         _______ _______ _______ _____ _____    ______ ____

>  <TORSDO>
F 15

>  <SCORE>
-6.131

>  <RMSD_LB>
8.429

>  <RMSD_UB>
11.521

$$$$
CHEMBL4226647
 OpenBabel10162523513D

 28 28  0  0  0  0  0  0  0  0999 V2000
  141.1120  138.8010  154.5320 C   0  0  0  0  0  0  0  0  0  0  0  0
  141.4930  139.5640  155.4160 O   0  0  0  0  0  0  0  0  0  0  0  0
  140.0070  137.9800  154.6940 N   0  0  0  0  0  0  0  0  0  0  0  0
  139.7230  137.3930  153.9560 H   0  0  0  0  0  0  0  0  0  0  0  0
  141.8200  138.7330  153.1650 C   0  0  0  0  0  2  0  0  0  0  0  0
  140.8920  139.0220  152.1140 O   0  0  0  0  0  0  0  0  0  0  0  0
  140.5740  137.9670  151.3190 C   0  0  0  0  0  0  0  0  0  0  0  0
  141.3920  137.1260  150.9150 O   0  0  0  0  0  0  0  0  0  0  0  0
  139.0860  137.8970  151.0530 C   0  0  0  0  0  2  0  0  0  0  0  0
  138.7540  136.8470  150.0060 C   0  0  0  0  0  2  0  0  0  0  0  0
  137.3010  136.9260  149.5480 C   0  0  0  0  0  2  0  0  0  0  0  0
  136.3790  136.2940  150.5860 C   0  0  0  0  0  2  0  0  0  0  0  0
  136.3830  134.7780  150.4550 C   0  0  0  0  0  2  0  0  0  0  0  0
  135.8450  134.1320  151.7250 C   0  0  0  0  0  2  0  0  0  0  0  0
  134.3310  134.2730  151.7870 C   0  0  0  0  0  2  0  0  0  0  0  0
  132.8420  133.8770  149.8240 C   0  0  0  0  0  1  0  0  0  0  0  0
  133.6590  133.2180  150.9190 C   0  0  0  0  0  2  0  0  0  0  0  0
  139.2620  137.9800  155.9430 C   0  0  0  0  0  2  0  0  0  0  0  0
  138.0180  137.1190  155.8980 C   0  0  0  0  0  0  0  0  0  0  0  0
  137.3050  136.9860  154.6980 C   0  0  0  0  0  3  0  0  0  0  0  0
  136.1600  136.1880  154.6310 C   0  0  0  0  0  3  0  0  0  0  0  0
  135.7000  135.5170  155.7650 C   0  0  0  0  0  0  0  0  0  0  0  0
  136.3680  135.6500  156.9870 C   0  0  0  0  0  0  0  0  0  0  0  0
  137.5270  136.4510  157.0380 C   0  0  0  0  0  3  0  0  0  0  0  0
  134.5860  134.7340  155.6420 O   0  0  0  0  0  0  0  0  0  0  0  0
  134.6700  133.8300  155.4130 H   0  0  0  0  0  0  0  0  0  0  0  0
  136.0160  135.0720  158.1850 O   0  0  0  0  0  0  0  0  0  0  0  0
  136.1590  135.8760  159.3560 C   0  0  0  0  0  1  0  0  0  0  0  0
  1  3  1  0  0  0  0
  1  2  2  0  0  0  0
  3 18  1  0  0  0  0
  4  3  1  0  0  0  0
  5  1  1  0  0  0  0
  6  5  1  0  0  0  0
  7  6  1  0  0  0  0
  8  7  2  0  0  0  0
  9  7  1  0  0  0  0
 10  9  1  0  0  0  0
 11 10  1  0  0  0  0
 11 12  1  0  0  0  0
 13 12  1  0  0  0  0
 13 14  1  0  0  0  0
 14 15  1  0  0  0  0
 16 17  1  0  0  0  0
 17 15  1  0  0  0  0
 19 18  1  0  0  0  0
 19 24  1  0  0  0  0
 20 19  2  0  0  0  0
 21 20  1  0  0  0  0
 21 22  2  0  0  0  0
 22 23  1  0  0  0  0
 23 24  2  0  0  0  0
 23 27  1  0  0  0  0
 25 22  1  0  0  0  0
 26 25  1  0  0  0  0
 27 28  1  0  0  0  0
M  END
>  <MODEL>
7

>  <REMARK>
 VINA RESULT:    -6.017      2.998      6.137
 INTER + INTRA:         -12.082
 INTER:                 -10.529
 INTRA:                  -1.553
 UNBOUND:                -0.964
  Name = CHEMBL4226647
  17 active torsions:
  status: ('A' for Active; 'I' for Inactive)
    1  A    between atoms: C_1  and  C_2
    2  A    between atoms: C_2  and  C_3
    3  A    between atoms: C_3  and  C_4
    4  A    between atoms: C_4  and  C_5
    5  A    between atoms: C_5  and  C_6
    6  A    between atoms: C_6  and  C_7
    7  A    between atoms: C_7  and  C_8
    8  A    between atoms: C_8  and  C_9
    9  A    between atoms: C_9  and  C_10
   10  A    between atoms: C_10  and  O_12
   11  A    between atoms: O_12  and  C_13
   12  A    between atoms: C_13  and  C_14
   13  A    between atoms: N_16  and  C_17
   14  A    between atoms: C_17  and  C_18
   15  A    between atoms: C_21  and  O_22
   16  A    between atoms: C_23  and  O_24
   17  A    between atoms: O_24  and  C_25
                            x       y       z     vdW  Elec       q    Type
                         _______ _______ _______ _____ _____    ______ ____

>  <TORSDO>
F 15

>  <SCORE>
-6.017

>  <RMSD_LB>
2.998

>  <RMSD_UB>
6.137

$$$$
CHEMBL4226647
 OpenBabel10162523513D

 28 28  0  0  0  0  0  0  0  0999 V2000
  139.5630  138.3680  154.7980 C   0  0  0  0  0  0  0  0  0  0  0  0
  140.3810  138.7280  155.6410 O   0  0  0  0  0  0  0  0  0  0  0  0
  138.4400  137.6270  155.1320 N   0  0  0  0  0  0  0  0  0  0  0  0
  137.7990  137.3700  154.4310 H   0  0  0  0  0  0  0  0  0  0  0  0
  139.7140  138.7500  153.3130 C   0  0  0  0  0  2  0  0  0  0  0  0
  138.9410  137.8640  152.4950 O   0  0  0  0  0  0  0  0  0  0  0  0
  139.5020  137.5460  151.3000 C   0  0  0  0  0  0  0  0  0  0  0  0
  140.6380  137.0630  151.1680 O   0  0  0  0  0  0  0  0  0  0  0  0
  138.5430  137.7770  150.1530 C   0  0  0  0  0  2  0  0  0  0  0  0
  138.2210  136.4830  149.4240 C   0  0  0  0  0  2  0  0  0  0  0  0
  137.2180  135.6220  150.1860 C   0  0  0  0  0  2  0  0  0  0  0  0
  135.8080  135.8430  149.6470 C   0  0  0  0  0  2  0  0  0  0  0  0
  135.5380  134.9300  148.4600 C   0  0  0  0  0  2  0  0  0  0  0  0
  134.1500  134.3140  148.5680 C   0  0  0  0  0  2  0  0  0  0  0  0
  134.2010  133.0410  149.4000 C   0  0  0  0  0  2  0  0  0  0  0  0
  132.4190  134.2150  150.6940 C   0  0  0  0  0  1  0  0  0  0  0  0
  133.6110  133.2810  150.7840 C   0  0  0  0  0  2  0  0  0  0  0  0
  138.2010  137.2270  156.5100 C   0  0  0  0  0  2  0  0  0  0  0  0
  136.9680  136.3650  156.6760 C   0  0  0  0  0  0  0  0  0  0  0  0
  136.5580  135.9730  157.9590 C   0  0  0  0  0  3  0  0  0  0  0  0
  135.4170  135.1860  158.1350 C   0  0  0  0  0  3  0  0  0  0  0  0
  134.6700  134.7680  157.0330 C   0  0  0  0  0  0  0  0  0  0  0  0
  135.0650  135.1130  155.7370 C   0  0  0  0  0  0  0  0  0  0  0  0
  136.2140  135.9150  155.5730 C   0  0  0  0  0  3  0  0  0  0  0  0
  133.5520  134.0140  157.2610 O   0  0  0  0  0  0  0  0  0  0  0  0
  133.5300  133.1160  156.9980 H   0  0  0  0  0  0  0  0  0  0  0  0
  134.4450  134.7520  154.5620 O   0  0  0  0  0  0  0  0  0  0  0  0
  133.9780  135.8120  153.7270 C   0  0  0  0  0  1  0  0  0  0  0  0
  1  3  1  0  0  0  0
  1  2  2  0  0  0  0
  3 18  1  0  0  0  0
  4  3  1  0  0  0  0
  5  1  1  0  0  0  0
  6  5  1  0  0  0  0
  7  6  1  0  0  0  0
  8  7  2  0  0  0  0
  9  7  1  0  0  0  0
 10  9  1  0  0  0  0
 10 11  1  0  0  0  0
 12 11  1  0  0  0  0
 13 14  1  0  0  0  0
 13 12  1  0  0  0  0
 14 15  1  0  0  0  0
 15 17  1  0  0  0  0
 16 17  1  0  0  0  0
 18 19  1  0  0  0  0
 19 20  1  0  0  0  0
 20 21  2  0  0  0  0
 22 25  1  0  0  0  0
 22 21  1  0  0  0  0
 23 22  2  0  0  0  0
 24 23  1  0  0  0  0
 24 19  2  0  0  0  0
 26 25  1  0  0  0  0
 27 23  1  0  0  0  0
 28 27  1  0  0  0  0
M  END
>  <MODEL>
8

>  <REMARK>
 VINA RESULT:    -5.992      2.445      5.990
 INTER + INTRA:         -12.035
 INTER:                 -10.779
 INTRA:                  -1.255
 UNBOUND:                -0.964
  Name = CHEMBL4226647
  17 active torsions:
  status: ('A' for Active; 'I' for Inactive)
    1  A    between atoms: C_1  and  C_2
    2  A    between atoms: C_2  and  C_3
    3  A    between atoms: C_3  and  C_4
    4  A    between atoms: C_4  and  C_5
    5  A    between atoms: C_5  and  C_6
    6  A    between atoms: C_6  and  C_7
    7  A    between atoms: C_7  and  C_8
    8  A    between atoms: C_8  and  C_9
    9  A    between atoms: C_9  and  C_10
   10  A    between atoms: C_10  and  O_12
   11  A    between atoms: O_12  and  C_13
   12  A    between atoms: C_13  and  C_14
   13  A    between atoms: N_16  and  C_17
   14  A    between atoms: C_17  and  C_18
   15  A    between atoms: C_21  and  O_22
   16  A    between atoms: C_23  and  O_24
   17  A    between atoms: O_24  and  C_25
                            x       y       z     vdW  Elec       q    Type
                         _______ _______ _______ _____ _____    ______ ____

>  <TORSDO>
F 15

>  <SCORE>
-5.992

>  <RMSD_LB>
2.445

>  <RMSD_UB>
5.990

$$$$
CHEMBL4226647
 OpenBabel10162523513D

 28 28  0  0  0  0  0  0  0  0999 V2000
  142.2530  138.8890  151.7980 C   0  0  0  0  0  0  0  0  0  0  0  0
  142.4370  138.4050  150.6840 O   0  0  0  0  0  0  0  0  0  0  0  0
  143.1210  139.8200  152.3480 N   0  0  0  0  0  0  0  0  0  0  0  0
  142.9330  140.1960  153.2380 H   0  0  0  0  0  0  0  0  0  0  0  0
  141.0220  138.5180  152.6460 C   0  0  0  0  0  2  0  0  0  0  0  0
  141.4350  137.9260  153.8830 O   0  0  0  0  0  0  0  0  0  0  0  0
  140.5930  138.1300  154.9290 C   0  0  0  0  0  0  0  0  0  0  0  0
  140.9500  138.5500  156.0410 O   0  0  0  0  0  0  0  0  0  0  0  0
  139.1540  137.8570  154.5500 C   0  0  0  0  0  2  0  0  0  0  0  0
  138.2960  137.5750  155.7720 C   0  0  0  0  0  2  0  0  0  0  0  0
  137.4650  136.3050  155.6150 C   0  0  0  0  0  2  0  0  0  0  0  0
  135.9780  136.6410  155.5910 C   0  0  0  0  0  2  0  0  0  0  0  0
  135.2600  135.8210  154.5300 C   0  0  0  0  0  2  0  0  0  0  0  0
  136.1640  135.6030  153.3240 C   0  0  0  0  0  2  0  0  0  0  0  0
  135.8040  134.3010  152.6230 C   0  0  0  0  0  2  0  0  0  0  0  0
  135.4240  136.0540  150.8870 C   0  0  0  0  0  1  0  0  0  0  0  0
  135.3460  134.5710  151.1950 C   0  0  0  0  0  2  0  0  0  0  0  0
  144.3070  140.2450  151.6210 C   0  0  0  0  0  2  0  0  0  0  0  0
  145.4760  140.5740  152.5240 C   0  0  0  0  0  0  0  0  0  0  0  0
  145.9040  141.9030  152.6550 C   0  0  0  0  0  3  0  0  0  0  0  0
  146.9750  142.2300  153.4910 C   0  0  0  0  0  3  0  0  0  0  0  0
  147.6430  141.2340  154.2060 C   0  0  0  0  0  0  0  0  0  0  0  0
  147.2630  139.8950  154.0780 C   0  0  0  0  0  0  0  0  0  0  0  0
  146.1760  139.5790  153.2370 C   0  0  0  0  0  3  0  0  0  0  0  0
  148.6720  141.6100  155.0240 O   0  0  0  0  0  0  0  0  0  0  0  0
  148.7220  142.4900  155.3410 H   0  0  0  0  0  0  0  0  0  0  0  0
  147.8440  138.8110  154.6960 O   0  0  0  0  0  0  0  0  0  0  0  0
  148.5010  137.8630  153.8540 C   0  0  0  0  0  1  0  0  0  0  0  0
  1  3  1  0  0  0  0
  1  5  1  0  0  0  0
  2  1  2  0  0  0  0
  3  4  1  0  0  0  0
  5  6  1  0  0  0  0
  6  7  1  0  0  0  0
  7  8  2  0  0  0  0
  9  7  1  0  0  0  0
  9 10  1  0  0  0  0
 11 10  1  0  0  0  0
 12 11  1  0  0  0  0
 13 12  1  0  0  0  0
 14 13  1  0  0  0  0
 15 14  1  0  0  0  0
 16 17  1  0  0  0  0
 17 15  1  0  0  0  0
 18  3  1  0  0  0  0
 18 19  1  0  0  0  0
 19 20  2  0  0  0  0
 19 24  1  0  0  0  0
 20 21  1  0  0  0  0
 21 22  2  0  0  0  0
 22 25  1  0  0  0  0
 23 22  1  0  0  0  0
 23 27  1  0  0  0  0
 24 23  2  0  0  0  0
 25 26  1  0  0  0  0
 28 27  1  0  0  0  0
M  END
>  <MODEL>
9

>  <REMARK>
 VINA RESULT:    -5.912      4.609      8.323
 INTER + INTRA:         -11.888
 INTER:                 -10.924
 INTRA:                  -0.964
 UNBOUND:                -0.964
  Name = CHEMBL4226647
  17 active torsions:
  status: ('A' for Active; 'I' for Inactive)
    1  A    between atoms: C_1  and  C_2
    2  A    between atoms: C_2  and  C_3
    3  A    between atoms: C_3  and  C_4
    4  A    between atoms: C_4  and  C_5
    5  A    between atoms: C_5  and  C_6
    6  A    between atoms: C_6  and  C_7
    7  A    between atoms: C_7  and  C_8
    8  A    between atoms: C_8  and  C_9
    9  A    between atoms: C_9  and  C_10
   10  A    between atoms: C_10  and  O_12
   11  A    between atoms: O_12  and  C_13
   12  A    between atoms: C_13  and  C_14
   13  A    between atoms: N_16  and  C_17
   14  A    between atoms: C_17  and  C_18
   15  A    between atoms: C_21  and  O_22
   16  A    between atoms: C_23  and  O_24
   17  A    between atoms: O_24  and  C_25
                            x       y       z     vdW  Elec       q    Type
                         _______ _______ _______ _____ _____    ______ ____

>  <TORSDO>
F 15

>  <SCORE>
-5.912

>  <RMSD_LB>
4.609

>  <RMSD_UB>
8.323

$$$$
