CHEMBL316007
 OpenBabel10172500183D

 27 27  0  0  0  0  0  0  0  0999 V2000
  143.3190  139.0130  150.2080 N   0  0  0  0  0  0  0  0  0  0  0  0
  143.7290  137.6910  150.1580 C   0  0  0  0  0  0  0  0  0  0  0  0
  144.8780  137.3750  149.9130 O   0  0  0  0  0  0  0  0  0  0  0  0
  142.3800  139.2330  150.4100 H   0  0  0  0  0  0  0  0  0  0  0  0
  144.2760  140.0680  149.9620 C   0  0  0  0  0  2  0  0  0  0  0  0
  144.4900  140.9680  151.1780 C   0  0  0  0  0  2  0  0  0  0  0  0
  145.9780  141.1920  151.4430 C   0  0  0  0  0  2  0  0  0  0  0  0
  146.1960  142.3980  152.3460 C   0  0  0  0  0  2  0  0  0  0  0  0
  146.5350  141.9600  153.7560 C   0  0  0  0  0  2  0  0  0  0  0  0
  148.0390  141.8010  153.8980 C   0  0  0  0  0  2  0  0  0  0  0  0
  148.3560  140.4760  154.5640 C   0  0  0  0  0  2  0  0  0  0  0  0
  148.5550  139.4000  153.5140 C   0  0  0  0  0  2  0  0  0  0  0  0
  147.7800  138.1520  153.8970 C   0  0  0  0  0  2  0  0  0  0  0  0
  146.7080  137.8650  152.8600 C   0  0  0  0  0  2  0  0  0  0  0  0
  144.8590  138.7460  154.2770 C   0  0  0  0  0  1  0  0  0  0  0  0
  145.3900  137.5320  153.5410 C   0  0  0  0  0  2  0  0  0  0  0  0
  142.6480  136.6520  150.4460 C   0  0  0  0  0  2  0  0  0  0  0  0
  141.5250  137.2080  151.2950 C   0  0  0  0  0  0  0  0  0  0  0  0
  141.7650  137.6180  152.6130 C   0  0  0  0  0  3  0  0  0  0  0  0
  140.7470  138.1970  153.3740 C   0  0  0  0  0  3  0  0  0  0  0  0
  139.4730  138.3620  152.8330 C   0  0  0  0  0  0  0  0  0  0  0  0
  139.1910  137.9380  151.5300 C   0  0  0  0  0  0  0  0  0  0  0  0
  140.2260  137.3590  150.7690 C   0  0  0  0  0  3  0  0  0  0  0  0
  138.5090  138.9500  153.6090 O   0  0  0  0  0  0  0  0  0  0  0  0
  137.6100  138.7080  153.5040 H   0  0  0  0  0  0  0  0  0  0  0  0
  137.9830  138.0390  150.8770 O   0  0  0  0  0  0  0  0  0  0  0  0
  137.6570  136.9830  149.9740 C   0  0  0  0  0  1  0  0  0  0  0  0
  1  4  1  0  0  0  0
  2  1  1  0  0  0  0
  2 17  1  0  0  0  0
  3  2  2  0  0  0  0
  5  1  1  0  0  0  0
  5  6  1  0  0  0  0
  6  7  1  0  0  0  0
  7  8  1  0  0  0  0
  8  9  1  0  0  0  0
  9 10  1  0  0  0  0
 10 11  1  0  0  0  0
 12 13  1  0  0  0  0
 12 11  1  0  0  0  0
 14 16  1  0  0  0  0
 14 13  1  0  0  0  0
 16 15  1  0  0  0  0
 17 18  1  0  0  0  0
 18 19  1  0  0  0  0
 19 20  2  0  0  0  0
 21 20  1  0  0  0  0
 21 24  1  0  0  0  0
 22 21  2  0  0  0  0
 23 18  2  0  0  0  0
 23 22  1  0  0  0  0
 25 24  1  0  0  0  0
 26 22  1  0  0  0  0
 27 26  1  0  0  0  0
M  END
>  <MODEL>
1

>  <REMARK>
 VINA RESULT:    -6.405      0.000      0.000
 INTER + INTRA:         -12.803
 INTER:                 -10.520
 INTRA:                  -2.284
 UNBOUND:                -0.969
  Name = CHEMBL316007
  17 active torsions:
  status: ('A' for Active; 'I' for Inactive)
    1  A    between atoms: C_1  and  C_2
    2  A    between atoms: C_2  and  C_3
    3  A    between atoms: C_3  and  C_4
    4  A    between atoms: C_4  and  C_5
    5  A    between atoms: C_5  and  C_6
    6  A    between atoms: C_6  and  C_7
    7  A    between atoms: C_7  and  C_8
    8  A    between atoms: C_8  and  C_9
    9  A    between atoms: C_9  and  C_10
   10  A    between atoms: C_10  and  C_11
   11  A    between atoms: C_11  and  C_12
   12  A    between atoms: C_12  and  N_13
   13  A    between atoms: C_14  and  C_16
   14  A    between atoms: C_16  and  C_17
   15  A    between atoms: C_20  and  O_21
   16  A    between atoms: C_22  and  O_23
   17  A    between atoms: O_23  and  C_24
                            x       y       z     vdW  Elec       q    Type
                         _______ _______ _______ _____ _____    ______ ____

>  <TORSDO>
F 15

>  <SCORE>
-6.405

>  <RMSD_LB>
0.000

>  <RMSD_UB>
0.000

$$$$
CHEMBL316007
 OpenBabel10172500183D

 27 27  0  0  0  0  0  0  0  0999 V2000
  145.2900  137.9130  150.0270 N   0  0  0  0  0  0  0  0  0  0  0  0
  143.9600  137.5840  149.8180 C   0  0  0  0  0  0  0  0  0  0  0  0
  143.3240  138.0180  148.8770 O   0  0  0  0  0  0  0  0  0  0  0  0
  145.7760  137.5440  150.8000 H   0  0  0  0  0  0  0  0  0  0  0  0
  145.9590  138.8010  149.1030 C   0  0  0  0  0  2  0  0  0  0  0  0
  146.6820  139.9500  149.8060 C   0  0  0  0  0  2  0  0  0  0  0  0
  145.6890  140.9740  150.3510 C   0  0  0  0  0  2  0  0  0  0  0  0
  146.3060  142.3660  150.3880 C   0  0  0  0  0  2  0  0  0  0  0  0
  147.6490  142.3410  151.0880 C   0  0  0  0  0  2  0  0  0  0  0  0
  147.4450  142.2110  152.5880 C   0  0  0  0  0  2  0  0  0  0  0  0
  148.7190  141.7100  153.2390 C   0  0  0  0  0  2  0  0  0  0  0  0
  148.4040  140.5670  154.1850 C   0  0  0  0  0  2  0  0  0  0  0  0
  146.9300  140.2130  154.0980 C   0  0  0  0  0  2  0  0  0  0  0  0
  146.7540  138.8920  153.3690 C   0  0  0  0  0  2  0  0  0  0  0  0
  146.4290  136.5360  154.1090 C   0  0  0  0  0  1  0  0  0  0  0  0
  147.3310  137.7520  154.1930 C   0  0  0  0  0  2  0  0  0  0  0  0
  143.3480  136.6290  150.8400 C   0  0  0  0  0  2  0  0  0  0  0  0
  142.5720  137.3570  151.9170 C   0  0  0  0  0  0  0  0  0  0  0  0
  143.2090  137.7750  153.0920 C   0  0  0  0  0  3  0  0  0  0  0  0
  142.5130  138.5080  154.0560 C   0  0  0  0  0  3  0  0  0  0  0  0
  141.1680  138.8210  153.8640 C   0  0  0  0  0  0  0  0  0  0  0  0
  140.4940  138.3940  152.7150 C   0  0  0  0  0  0  0  0  0  0  0  0
  141.2060  137.6590  151.7470 C   0  0  0  0  0  3  0  0  0  0  0  0
  140.5280  139.5560  154.8280 O   0  0  0  0  0  0  0  0  0  0  0  0
  140.2790  140.4410  154.6530 H   0  0  0  0  0  0  0  0  0  0  0  0
  139.1740  138.6320  152.4020 O   0  0  0  0  0  0  0  0  0  0  0  0
  138.5410  137.6790  151.5490 C   0  0  0  0  0  1  0  0  0  0  0  0
  1  4  1  0  0  0  0
  2  1  1  0  0  0  0
  2 17  1  0  0  0  0
  3  2  2  0  0  0  0
  5  6  1  0  0  0  0
  5  1  1  0  0  0  0
  6  7  1  0  0  0  0
  7  8  1  0  0  0  0
  8  9  1  0  0  0  0
  9 10  1  0  0  0  0
 10 11  1  0  0  0  0
 11 12  1  0  0  0  0
 13 12  1  0  0  0  0
 14 13  1  0  0  0  0
 14 16  1  0  0  0  0
 15 16  1  0  0  0  0
 17 18  1  0  0  0  0
 18 19  1  0  0  0  0
 19 20  2  0  0  0  0
 21 20  1  0  0  0  0
 21 24  1  0  0  0  0
 22 21  2  0  0  0  0
 23 18  2  0  0  0  0
 23 22  1  0  0  0  0
 25 24  1  0  0  0  0
 26 22  1  0  0  0  0
 27 26  1  0  0  0  0
M  END
>  <MODEL>
2

>  <REMARK>
 VINA RESULT:    -6.376      1.467      1.925
 INTER + INTRA:         -12.749
 INTER:                 -10.668
 INTRA:                  -2.080
 UNBOUND:                -0.969
  Name = CHEMBL316007
  17 active torsions:
  status: ('A' for Active; 'I' for Inactive)
    1  A    between atoms: C_1  and  C_2
    2  A    between atoms: C_2  and  C_3
    3  A    between atoms: C_3  and  C_4
    4  A    between atoms: C_4  and  C_5
    5  A    between atoms: C_5  and  C_6
    6  A    between atoms: C_6  and  C_7
    7  A    between atoms: C_7  and  C_8
    8  A    between atoms: C_8  and  C_9
    9  A    between atoms: C_9  and  C_10
   10  A    between atoms: C_10  and  C_11
   11  A    between atoms: C_11  and  C_12
   12  A    between atoms: C_12  and  N_13
   13  A    between atoms: C_14  and  C_16
   14  A    between atoms: C_16  and  C_17
   15  A    between atoms: C_20  and  O_21
   16  A    between atoms: C_22  and  O_23
   17  A    between atoms: O_23  and  C_24
                            x       y       z     vdW  Elec       q    Type
                         _______ _______ _______ _____ _____    ______ ____

>  <TORSDO>
F 15

>  <SCORE>
-6.376

>  <RMSD_LB>
1.467

>  <RMSD_UB>
1.925

$$$$
CHEMBL316007
 OpenBabel10172500183D

 27 27  0  0  0  0  0  0  0  0999 V2000
  143.8600  138.4840  150.3680 N   0  0  0  0  0  0  0  0  0  0  0  0
  143.2250  137.4900  149.6420 C   0  0  0  0  0  0  0  0  0  0  0  0
  143.5040  137.2520  148.4820 O   0  0  0  0  0  0  0  0  0  0  0  0
  143.6090  138.6500  151.3060 H   0  0  0  0  0  0  0  0  0  0  0  0
  144.8950  139.2760  149.7410 C   0  0  0  0  0  2  0  0  0  0  0  0
  144.6910  140.7780  149.9380 C   0  0  0  0  0  2  0  0  0  0  0  0
  146.0130  141.5330  149.8170 C   0  0  0  0  0  2  0  0  0  0  0  0
  147.1150  140.8330  150.6020 C   0  0  0  0  0  2  0  0  0  0  0  0
  147.6730  141.7440  151.6750 C   0  0  0  0  0  2  0  0  0  0  0  0
  146.5510  142.2180  152.5820 C   0  0  0  0  0  2  0  0  0  0  0  0
  146.9410  142.0160  154.0340 C   0  0  0  0  0  2  0  0  0  0  0  0
  147.6560  140.6880  154.1990 C   0  0  0  0  0  2  0  0  0  0  0  0
  146.6710  139.6220  154.6480 C   0  0  0  0  0  2  0  0  0  0  0  0
  147.1320  138.2550  154.1730 C   0  0  0  0  0  2  0  0  0  0  0  0
  145.8420  136.5990  152.8330 C   0  0  0  0  0  1  0  0  0  0  0  0
  146.5430  137.9430  152.8070 C   0  0  0  0  0  2  0  0  0  0  0  0
  142.1580  136.7000  150.3960 C   0  0  0  0  0  2  0  0  0  0  0  0
  141.3220  137.5790  151.3030 C   0  0  0  0  0  0  0  0  0  0  0  0
  140.2390  138.3030  150.7890 C   0  0  0  0  0  3  0  0  0  0  0  0
  139.4240  139.0590  151.6340 C   0  0  0  0  0  3  0  0  0  0  0  0
  139.6890  139.1130  153.0010 C   0  0  0  0  0  0  0  0  0  0  0  0
  140.7800  138.4250  153.5440 C   0  0  0  0  0  0  0  0  0  0  0  0
  141.5930  137.6620  152.6820 C   0  0  0  0  0  3  0  0  0  0  0  0
  138.8540  139.8530  153.7970 O   0  0  0  0  0  0  0  0  0  0  0  0
  138.3890  140.5820  153.4370 H   0  0  0  0  0  0  0  0  0  0  0  0
  141.1540  138.3930  154.8680 O   0  0  0  0  0  0  0  0  0  0  0  0
  142.1100  139.3690  155.2830 C   0  0  0  0  0  1  0  0  0  0  0  0
  1  4  1  0  0  0  0
  2  1  1  0  0  0  0
  2 17  1  0  0  0  0
  3  2  2  0  0  0  0
  5  6  1  0  0  0  0
  5  1  1  0  0  0  0
  7  6  1  0  0  0  0
  7  8  1  0  0  0  0
  8  9  1  0  0  0  0
  9 10  1  0  0  0  0
 10 11  1  0  0  0  0
 11 12  1  0  0  0  0
 12 13  1  0  0  0  0
 14 13  1  0  0  0  0
 16 15  1  0  0  0  0
 16 14  1  0  0  0  0
 17 18  1  0  0  0  0
 18 23  1  0  0  0  0
 19 18  2  0  0  0  0
 19 20  1  0  0  0  0
 20 21  2  0  0  0  0
 21 22  1  0  0  0  0
 21 24  1  0  0  0  0
 22 26  1  0  0  0  0
 23 22  2  0  0  0  0
 25 24  1  0  0  0  0
 26 27  1  0  0  0  0
M  END
>  <MODEL>
3

>  <REMARK>
 VINA RESULT:    -6.067      1.374      2.497
 INTER + INTRA:         -12.178
 INTER:                 -10.408
 INTRA:                  -1.769
 UNBOUND:                -0.969
  Name = CHEMBL316007
  17 active torsions:
  status: ('A' for Active; 'I' for Inactive)
    1  A    between atoms: C_1  and  C_2
    2  A    between atoms: C_2  and  C_3
    3  A    between atoms: C_3  and  C_4
    4  A    between atoms: C_4  and  C_5
    5  A    between atoms: C_5  and  C_6
    6  A    between atoms: C_6  and  C_7
    7  A    between atoms: C_7  and  C_8
    8  A    between atoms: C_8  and  C_9
    9  A    between atoms: C_9  and  C_10
   10  A    between atoms: C_10  and  C_11
   11  A    between atoms: C_11  and  C_12
   12  A    between atoms: C_12  and  N_13
   13  A    between atoms: C_14  and  C_16
   14  A    between atoms: C_16  and  C_17
   15  A    between atoms: C_20  and  O_21
   16  A    between atoms: C_22  and  O_23
   17  A    between atoms: O_23  and  C_24
                            x       y       z     vdW  Elec       q    Type
                         _______ _______ _______ _____ _____    ______ ____

>  <TORSDO>
F 15

>  <SCORE>
-6.067

>  <RMSD_LB>
1.374

>  <RMSD_UB>
2.497

$$$$
CHEMBL316007
 OpenBabel10172500183D

 27 27  0  0  0  0  0  0  0  0999 V2000
  135.5590  134.6840  153.8910 N   0  0  0  0  0  0  0  0  0  0  0  0
  135.5720  135.9850  154.3670 C   0  0  0  0  0  0  0  0  0  0  0  0
  134.5630  136.6610  154.4390 O   0  0  0  0  0  0  0  0  0  0  0  0
  136.3950  134.1650  153.8460 H   0  0  0  0  0  0  0  0  0  0  0  0
  134.3120  134.0930  153.4610 C   0  0  0  0  0  2  0  0  0  0  0  0
  134.1690  134.0550  151.9400 C   0  0  0  0  0  2  0  0  0  0  0  0
  135.5280  134.1950  151.2560 C   0  0  0  0  0  2  0  0  0  0  0  0
  135.4480  133.7760  149.7940 C   0  0  0  0  0  2  0  0  0  0  0  0
  134.3150  132.7940  149.5770 C   0  0  0  0  0  2  0  0  0  0  0  0
  133.7700  132.9420  148.1670 C   0  0  0  0  0  2  0  0  0  0  0  0
  132.5430  133.8340  148.1800 C   0  0  0  0  0  2  0  0  0  0  0  0
  132.9090  135.2270  147.7060 C   0  0  0  0  0  2  0  0  0  0  0  0
  133.9600  135.1440  146.6130 C   0  0  0  0  0  2  0  0  0  0  0  0
  134.9720  136.2650  146.7770 C   0  0  0  0  0  2  0  0  0  0  0  0
  136.0960  137.5760  148.5710 C   0  0  0  0  0  1  0  0  0  0  0  0
  134.7910  136.9480  148.1230 C   0  0  0  0  0  2  0  0  0  0  0  0
  136.9340  136.5140  154.8100 C   0  0  0  0  0  2  0  0  0  0  0  0
  137.0270  136.6830  156.3110 C   0  0  0  0  0  0  0  0  0  0  0  0
  137.9260  137.6010  156.8690 C   0  0  0  0  0  3  0  0  0  0  0  0
  137.9640  137.8100  158.2490 C   0  0  0  0  0  3  0  0  0  0  0  0
  137.1150  137.0950  159.0910 C   0  0  0  0  0  0  0  0  0  0  0  0
  136.2250  136.1490  158.5700 C   0  0  0  0  0  0  0  0  0  0  0  0
  136.1920  135.9500  157.1760 C   0  0  0  0  0  3  0  0  0  0  0  0
  137.1740  137.3430  160.4380 O   0  0  0  0  0  0  0  0  0  0  0  0
  137.5700  138.1310  160.7520 H   0  0  0  0  0  0  0  0  0  0  0  0
  135.3370  135.3770  159.2850 O   0  0  0  0  0  0  0  0  0  0  0  0
  134.2230  134.8540  158.5610 C   0  0  0  0  0  1  0  0  0  0  0  0
  1  2  1  0  0  0  0
  2  3  2  0  0  0  0
  2 17  1  0  0  0  0
  4  1  1  0  0  0  0
  5  1  1  0  0  0  0
  6  5  1  0  0  0  0
  7  6  1  0  0  0  0
  8  7  1  0  0  0  0
  9  8  1  0  0  0  0
 10 11  1  0  0  0  0
 10  9  1  0  0  0  0
 12 11  1  0  0  0  0
 13 14  1  0  0  0  0
 13 12  1  0  0  0  0
 14 16  1  0  0  0  0
 16 15  1  0  0  0  0
 17 18  1  0  0  0  0
 18 19  2  0  0  0  0
 18 23  1  0  0  0  0
 19 20  1  0  0  0  0
 20 21  2  0  0  0  0
 21 24  1  0  0  0  0
 22 21  1  0  0  0  0
 22 26  1  0  0  0  0
 23 22  2  0  0  0  0
 24 25  1  0  0  0  0
 27 26  1  0  0  0  0
M  END
>  <MODEL>
4

>  <REMARK>
 VINA RESULT:    -6.060      8.250     11.659
 INTER + INTRA:         -12.165
 INTER:                 -10.574
 INTRA:                  -1.591
 UNBOUND:                -0.969
  Name = CHEMBL316007
  17 active torsions:
  status: ('A' for Active; 'I' for Inactive)
    1  A    between atoms: C_1  and  C_2
    2  A    between atoms: C_2  and  C_3
    3  A    between atoms: C_3  and  C_4
    4  A    between atoms: C_4  and  C_5
    5  A    between atoms: C_5  and  C_6
    6  A    between atoms: C_6  and  C_7
    7  A    between atoms: C_7  and  C_8
    8  A    between atoms: C_8  and  C_9
    9  A    between atoms: C_9  and  C_10
   10  A    between atoms: C_10  and  C_11
   11  A    between atoms: C_11  and  C_12
   12  A    between atoms: C_12  and  N_13
   13  A    between atoms: C_14  and  C_16
   14  A    between atoms: C_16  and  C_17
   15  A    between atoms: C_20  and  O_21
   16  A    between atoms: C_22  and  O_23
   17  A    between atoms: O_23  and  C_24
                            x       y       z     vdW  Elec       q    Type
                         _______ _______ _______ _____ _____    ______ ____

>  <TORSDO>
F 15

>  <SCORE>
-6.060

>  <RMSD_LB>
8.250

>  <RMSD_UB>
11.659

$$$$
CHEMBL316007
 OpenBabel10172500183D

 27 27  0  0  0  0  0  0  0  0999 V2000
  135.3070  137.2150  147.0860 N   0  0  0  0  0  0  0  0  0  0  0  0
  134.0590  137.1370  146.4880 C   0  0  0  0  0  0  0  0  0  0  0  0
  133.9200  137.0430  145.2830 O   0  0  0  0  0  0  0  0  0  0  0  0
  135.3830  137.2910  148.0650 H   0  0  0  0  0  0  0  0  0  0  0  0
  136.4960  137.1860  146.2630 C   0  0  0  0  0  2  0  0  0  0  0  0
  136.6560  135.8690  145.5040 C   0  0  0  0  0  2  0  0  0  0  0  0
  137.7770  135.0210  146.1030 C   0  0  0  0  0  2  0  0  0  0  0  0
  137.3080  134.3140  147.3680 C   0  0  0  0  0  2  0  0  0  0  0  0
  136.1180  133.4240  147.0780 C   0  0  0  0  0  2  0  0  0  0  0  0
  136.4430  132.4900  145.9250 C   0  0  0  0  0  2  0  0  0  0  0  0
  135.3190  132.5160  144.9070 C   0  0  0  0  0  2  0  0  0  0  0  0
  135.6630  131.6250  143.7290 C   0  0  0  0  0  2  0  0  0  0  0  0
  137.1620  131.6450  143.4850 C   0  0  0  0  0  2  0  0  0  0  0  0
  137.4750  132.4540  142.2380 C   0  0  0  0  0  2  0  0  0  0  0  0
  137.2650  134.9010  141.8240 C   0  0  0  0  0  1  0  0  0  0  0  0
  137.9920  133.8320  142.6170 C   0  0  0  0  0  2  0  0  0  0  0  0
  132.8670  137.1620  147.4420 C   0  0  0  0  0  2  0  0  0  0  0  0
  132.9370  136.0630  148.4810 C   0  0  0  0  0  0  0  0  0  0  0  0
  132.8060  134.7200  148.1070 C   0  0  0  0  0  3  0  0  0  0  0  0
  132.9410  133.7020  149.0520 C   0  0  0  0  0  3  0  0  0  0  0  0
  133.1940  134.0130  150.3880 C   0  0  0  0  0  0  0  0  0  0  0  0
  133.3020  135.3450  150.8010 C   0  0  0  0  0  0  0  0  0  0  0  0
  133.1690  136.3640  149.8380 C   0  0  0  0  0  3  0  0  0  0  0  0
  133.3360  132.9810  151.2790 O   0  0  0  0  0  0  0  0  0  0  0  0
  133.1000  132.1100  151.0290 H   0  0  0  0  0  0  0  0  0  0  0  0
  133.5480  135.7890  152.0810 O   0  0  0  0  0  0  0  0  0  0  0  0
  134.9190  135.9350  152.4510 C   0  0  0  0  0  1  0  0  0  0  0  0
  1  4  1  0  0  0  0
  2  1  1  0  0  0  0
  2 17  1  0  0  0  0
  3  2  2  0  0  0  0
  5  1  1  0  0  0  0
  6  7  1  0  0  0  0
  6  5  1  0  0  0  0
  7  8  1  0  0  0  0
  9  8  1  0  0  0  0
 10  9  1  0  0  0  0
 11 10  1  0  0  0  0
 12 11  1  0  0  0  0
 13 12  1  0  0  0  0
 14 16  1  0  0  0  0
 14 13  1  0  0  0  0
 15 16  1  0  0  0  0
 17 18  1  0  0  0  0
 18 23  1  0  0  0  0
 19 18  2  0  0  0  0
 19 20  1  0  0  0  0
 20 21  2  0  0  0  0
 21 22  1  0  0  0  0
 21 24  1  0  0  0  0
 22 26  1  0  0  0  0
 23 22  2  0  0  0  0
 25 24  1  0  0  0  0
 26 27  1  0  0  0  0
M  END
>  <MODEL>
5

>  <REMARK>
 VINA RESULT:    -6.054      9.752     11.934
 INTER + INTRA:         -12.155
 INTER:                 -10.327
 INTRA:                  -1.828
 UNBOUND:                -0.969
  Name = CHEMBL316007
  17 active torsions:
  status: ('A' for Active; 'I' for Inactive)
    1  A    between atoms: C_1  and  C_2
    2  A    between atoms: C_2  and  C_3
    3  A    between atoms: C_3  and  C_4
    4  A    between atoms: C_4  and  C_5
    5  A    between atoms: C_5  and  C_6
    6  A    between atoms: C_6  and  C_7
    7  A    between atoms: C_7  and  C_8
    8  A    between atoms: C_8  and  C_9
    9  A    between atoms: C_9  and  C_10
   10  A    between atoms: C_10  and  C_11
   11  A    between atoms: C_11  and  C_12
   12  A    between atoms: C_12  and  N_13
   13  A    between atoms: C_14  and  C_16
   14  A    between atoms: C_16  and  C_17
   15  A    between atoms: C_20  and  O_21
   16  A    between atoms: C_22  and  O_23
   17  A    between atoms: O_23  and  C_24
                            x       y       z     vdW  Elec       q    Type
                         _______ _______ _______ _____ _____    ______ ____

>  <TORSDO>
F 15

>  <SCORE>
-6.054

>  <RMSD_LB>
9.752

>  <RMSD_UB>
11.934

$$$$
CHEMBL316007
 OpenBabel10172500183D

 27 27  0  0  0  0  0  0  0  0999 V2000
  145.4810  139.5740  149.6330 N   0  0  0  0  0  0  0  0  0  0  0  0
  144.6500  140.5220  150.2090 C   0  0  0  0  0  0  0  0  0  0  0  0
  143.4550  140.3450  150.3400 O   0  0  0  0  0  0  0  0  0  0  0  0
  146.4460  139.7500  149.5420 H   0  0  0  0  0  0  0  0  0  0  0  0
  144.9220  138.3240  149.1670 C   0  0  0  0  0  2  0  0  0  0  0  0
  145.7960  137.1200  149.5150 C   0  0  0  0  0  2  0  0  0  0  0  0
  145.6680  136.7560  150.9930 C   0  0  0  0  0  2  0  0  0  0  0  0
  144.2620  137.0410  151.5050 C   0  0  0  0  0  2  0  0  0  0  0  0
  144.2800  137.3360  152.9900 C   0  0  0  0  0  2  0  0  0  0  0  0
  142.8600  137.5340  153.4930 C   0  0  0  0  0  2  0  0  0  0  0  0
  142.4040  138.9520  153.2060 C   0  0  0  0  0  2  0  0  0  0  0  0
  141.0420  138.9340  152.5380 C   0  0  0  0  0  2  0  0  0  0  0  0
  140.6380  137.5050  152.2220 C   0  0  0  0  0  2  0  0  0  0  0  0
  140.0230  137.4320  150.8360 C   0  0  0  0  0  2  0  0  0  0  0  0
  137.6140  137.0640  151.3520 C   0  0  0  0  0  1  0  0  0  0  0  0
  138.6370  138.0580  150.8380 C   0  0  0  0  0  2  0  0  0  0  0  0
  145.3370  141.8020  150.6820 C   0  0  0  0  0  2  0  0  0  0  0  0
  146.3110  141.5490  151.8130 C   0  0  0  0  0  0  0  0  0  0  0  0
  147.5800  142.1410  151.8040 C   0  0  0  0  0  3  0  0  0  0  0  0
  148.4540  141.9680  152.8790 C   0  0  0  0  0  3  0  0  0  0  0  0
  148.0760  141.1890  153.9720 C   0  0  0  0  0  0  0  0  0  0  0  0
  146.8270  140.5590  154.0010 C   0  0  0  0  0  0  0  0  0  0  0  0
  145.9510  140.7450  152.9130 C   0  0  0  0  0  3  0  0  0  0  0  0
  148.9580  141.0580  155.0130 O   0  0  0  0  0  0  0  0  0  0  0  0
  149.7680  140.6070  154.8870 H   0  0  0  0  0  0  0  0  0  0  0  0
  146.3300  139.7670  155.0110 O   0  0  0  0  0  0  0  0  0  0  0  0
  146.7770  138.4120  155.0350 C   0  0  0  0  0  1  0  0  0  0  0  0
  1  2  1  0  0  0  0
  2  3  2  0  0  0  0
  2 17  1  0  0  0  0
  4  1  1  0  0  0  0
  5  6  1  0  0  0  0
  5  1  1  0  0  0  0
  6  7  1  0  0  0  0
  7  8  1  0  0  0  0
  8  9  1  0  0  0  0
  9 10  1  0  0  0  0
 11 10  1  0  0  0  0
 12 11  1  0  0  0  0
 13 12  1  0  0  0  0
 14 16  1  0  0  0  0
 14 13  1  0  0  0  0
 16 15  1  0  0  0  0
 17 18  1  0  0  0  0
 18 23  1  0  0  0  0
 19 18  2  0  0  0  0
 19 20  1  0  0  0  0
 20 21  2  0  0  0  0
 21 22  1  0  0  0  0
 21 24  1  0  0  0  0
 22 26  1  0  0  0  0
 23 22  2  0  0  0  0
 25 24  1  0  0  0  0
 26 27  1  0  0  0  0
M  END
>  <MODEL>
6

>  <REMARK>
 VINA RESULT:    -5.894      2.421      6.973
 INTER + INTRA:         -11.858
 INTER:                 -10.185
 INTRA:                  -1.674
 UNBOUND:                -0.969
  Name = CHEMBL316007
  17 active torsions:
  status: ('A' for Active; 'I' for Inactive)
    1  A    between atoms: C_1  and  C_2
    2  A    between atoms: C_2  and  C_3
    3  A    between atoms: C_3  and  C_4
    4  A    between atoms: C_4  and  C_5
    5  A    between atoms: C_5  and  C_6
    6  A    between atoms: C_6  and  C_7
    7  A    between atoms: C_7  and  C_8
    8  A    between atoms: C_8  and  C_9
    9  A    between atoms: C_9  and  C_10
   10  A    between atoms: C_10  and  C_11
   11  A    between atoms: C_11  and  C_12
   12  A    between atoms: C_12  and  N_13
   13  A    between atoms: C_14  and  C_16
   14  A    between atoms: C_16  and  C_17
   15  A    between atoms: C_20  and  O_21
   16  A    between atoms: C_22  and  O_23
   17  A    between atoms: O_23  and  C_24
                            x       y       z     vdW  Elec       q    Type
                         _______ _______ _______ _____ _____    ______ ____

>  <TORSDO>
F 15

>  <SCORE>
-5.894

>  <RMSD_LB>
2.421

>  <RMSD_UB>
6.973

$$$$
CHEMBL316007
 OpenBabel10172500183D

 27 27  0  0  0  0  0  0  0  0999 V2000
  135.1360  138.1270  147.0950 N   0  0  0  0  0  0  0  0  0  0  0  0
  134.2780  137.2080  146.5130 C   0  0  0  0  0  0  0  0  0  0  0  0
  134.5870  136.5610  145.5310 O   0  0  0  0  0  0  0  0  0  0  0  0
  134.8540  138.6340  147.8900 H   0  0  0  0  0  0  0  0  0  0  0  0
  136.4490  138.3360  146.5270 C   0  0  0  0  0  2  0  0  0  0  0  0
  137.1840  139.5190  147.1570 C   0  0  0  0  0  2  0  0  0  0  0  0
  138.1700  139.0480  148.2250 C   0  0  0  0  0  2  0  0  0  0  0  0
  139.1620  138.0470  147.6480 C   0  0  0  0  0  2  0  0  0  0  0  0
  139.1120  136.7390  148.4100 C   0  0  0  0  0  2  0  0  0  0  0  0
  139.6450  135.6150  147.5390 C   0  0  0  0  0  2  0  0  0  0  0  0
  138.5120  135.0020  146.7390 C   0  0  0  0  0  2  0  0  0  0  0  0
  137.8010  133.9490  147.5680 C   0  0  0  0  0  2  0  0  0  0  0  0
  136.2980  134.0740  147.3870 C   0  0  0  0  0  2  0  0  0  0  0  0
  135.7460  132.8210  146.7300 C   0  0  0  0  0  2  0  0  0  0  0  0
  135.7400  132.4410  144.2690 C   0  0  0  0  0  1  0  0  0  0  0  0
  135.0660  133.1680  145.4160 C   0  0  0  0  0  2  0  0  0  0  0  0
  132.9210  137.0480  147.1940 C   0  0  0  0  0  2  0  0  0  0  0  0
  132.9460  136.0090  148.2950 C   0  0  0  0  0  0  0  0  0  0  0  0
  132.7640  134.6530  147.9970 C   0  0  0  0  0  3  0  0  0  0  0  0
  132.8580  133.6860  149.0000 C   0  0  0  0  0  3  0  0  0  0  0  0
  133.1200  134.0620  150.3160 C   0  0  0  0  0  0  0  0  0  0  0  0
  133.2780  135.4100  150.6540 C   0  0  0  0  0  0  0  0  0  0  0  0
  133.1870  136.3780  149.6330 C   0  0  0  0  0  3  0  0  0  0  0  0
  133.2200  133.0790  151.2660 O   0  0  0  0  0  0  0  0  0  0  0  0
  133.8090  133.1810  151.9860 H   0  0  0  0  0  0  0  0  0  0  0  0
  133.5380  135.9180  151.9070 O   0  0  0  0  0  0  0  0  0  0  0  0
  134.9030  135.9080  152.3270 C   0  0  0  0  0  1  0  0  0  0  0  0
  1  4  1  0  0  0  0
  2  1  1  0  0  0  0
  2 17  1  0  0  0  0
  3  2  2  0  0  0  0
  5  1  1  0  0  0  0
  5  6  1  0  0  0  0
  6  7  1  0  0  0  0
  8  7  1  0  0  0  0
  8  9  1  0  0  0  0
 10  9  1  0  0  0  0
 11 10  1  0  0  0  0
 11 12  1  0  0  0  0
 13 12  1  0  0  0  0
 14 13  1  0  0  0  0
 15 16  1  0  0  0  0
 16 14  1  0  0  0  0
 17 18  1  0  0  0  0
 18 23  1  0  0  0  0
 19 18  2  0  0  0  0
 19 20  1  0  0  0  0
 20 21  2  0  0  0  0
 21 22  1  0  0  0  0
 21 24  1  0  0  0  0
 22 26  1  0  0  0  0
 23 22  2  0  0  0  0
 24 25  1  0  0  0  0
 26 27  1  0  0  0  0
M  END
>  <MODEL>
7

>  <REMARK>
 VINA RESULT:    -5.873      7.721     10.405
 INTER + INTRA:         -11.820
 INTER:                  -9.765
 INTRA:                  -2.055
 UNBOUND:                -0.969
  Name = CHEMBL316007
  17 active torsions:
  status: ('A' for Active; 'I' for Inactive)
    1  A    between atoms: C_1  and  C_2
    2  A    between atoms: C_2  and  C_3
    3  A    between atoms: C_3  and  C_4
    4  A    between atoms: C_4  and  C_5
    5  A    between atoms: C_5  and  C_6
    6  A    between atoms: C_6  and  C_7
    7  A    between atoms: C_7  and  C_8
    8  A    between atoms: C_8  and  C_9
    9  A    between atoms: C_9  and  C_10
   10  A    between atoms: C_10  and  C_11
   11  A    between atoms: C_11  and  C_12
   12  A    between atoms: C_12  and  N_13
   13  A    between atoms: C_14  and  C_16
   14  A    between atoms: C_16  and  C_17
   15  A    between atoms: C_20  and  O_21
   16  A    between atoms: C_22  and  O_23
   17  A    between atoms: O_23  and  C_24
                            x       y       z     vdW  Elec       q    Type
                         _______ _______ _______ _____ _____    ______ ____

>  <TORSDO>
F 15

>  <SCORE>
-5.873

>  <RMSD_LB>
7.721

>  <RMSD_UB>
10.405

$$$$
CHEMBL316007
 OpenBabel10172500183D

 27 27  0  0  0  0  0  0  0  0999 V2000
  136.2600  134.7620  151.9870 N   0  0  0  0  0  0  0  0  0  0  0  0
  135.5870  135.6460  152.8150 C   0  0  0  0  0  0  0  0  0  0  0  0
  134.6210  136.2820  152.4390 O   0  0  0  0  0  0  0  0  0  0  0  0
  137.0390  134.2630  152.3240 H   0  0  0  0  0  0  0  0  0  0  0  0
  135.8110  134.5770  150.6250 C   0  0  0  0  0  2  0  0  0  0  0  0
  136.6630  135.3410  149.6120 C   0  0  0  0  0  2  0  0  0  0  0  0
  137.7310  134.4360  148.9990 C   0  0  0  0  0  2  0  0  0  0  0  0
  137.6290  134.4250  147.4790 C   0  0  0  0  0  2  0  0  0  0  0  0
  136.1990  134.6510  147.0350 C   0  0  0  0  0  2  0  0  0  0  0  0
  135.5740  133.3300  146.6220 C   0  0  0  0  0  2  0  0  0  0  0  0
  134.5380  132.9080  147.6460 C   0  0  0  0  0  2  0  0  0  0  0  0
  133.2290  133.6310  147.3900 C   0  0  0  0  0  2  0  0  0  0  0  0
  132.7810  134.3530  148.6480 C   0  0  0  0  0  2  0  0  0  0  0  0
  133.0790  135.8380  148.5310 C   0  0  0  0  0  2  0  0  0  0  0  0
  133.3830  137.3500  146.5760 C   0  0  0  0  0  1  0  0  0  0  0  0
  132.4260  136.4120  147.2840 C   0  0  0  0  0  2  0  0  0  0  0  0
  136.1290  135.7610  154.2380 C   0  0  0  0  0  2  0  0  0  0  0  0
  137.2040  136.8200  154.3620 C   0  0  0  0  0  0  0  0  0  0  0  0
  137.6610  137.2250  155.6220 C   0  0  0  0  0  3  0  0  0  0  0  0
  138.7010  138.1490  155.7390 C   0  0  0  0  0  3  0  0  0  0  0  0
  139.2890  138.6910  154.5970 C   0  0  0  0  0  0  0  0  0  0  0  0
  138.8380  138.3310  153.3230 C   0  0  0  0  0  0  0  0  0  0  0  0
  137.7910  137.3940  153.2170 C   0  0  0  0  0  3  0  0  0  0  0  0
  140.3180  139.5830  154.7570 O   0  0  0  0  0  0  0  0  0  0  0  0
  140.6300  140.0740  154.0230 H   0  0  0  0  0  0  0  0  0  0  0  0
  139.3260  138.7880  152.1190 O   0  0  0  0  0  0  0  0  0  0  0  0
  140.3780  138.0260  151.5280 C   0  0  0  0  0  1  0  0  0  0  0  0
  1  4  1  0  0  0  0
  1  2  1  0  0  0  0
  2 17  1  0  0  0  0
  3  2  2  0  0  0  0
  5  1  1  0  0  0  0
  6  5  1  0  0  0  0
  7  6  1  0  0  0  0
  8  7  1  0  0  0  0
  9  8  1  0  0  0  0
 10  9  1  0  0  0  0
 10 11  1  0  0  0  0
 12 11  1  0  0  0  0
 12 13  1  0  0  0  0
 14 13  1  0  0  0  0
 15 16  1  0  0  0  0
 16 14  1  0  0  0  0
 17 18  1  0  0  0  0
 18 19  1  0  0  0  0
 19 20  2  0  0  0  0
 21 24  1  0  0  0  0
 21 20  1  0  0  0  0
 22 21  2  0  0  0  0
 23 22  1  0  0  0  0
 23 18  2  0  0  0  0
 25 24  1  0  0  0  0
 26 22  1  0  0  0  0
 27 26  1  0  0  0  0
M  END
>  <MODEL>
8

>  <REMARK>
 VINA RESULT:    -5.857      5.454     10.703
 INTER + INTRA:         -11.790
 INTER:                 -10.128
 INTRA:                  -1.663
 UNBOUND:                -0.969
  Name = CHEMBL316007
  17 active torsions:
  status: ('A' for Active; 'I' for Inactive)
    1  A    between atoms: C_1  and  C_2
    2  A    between atoms: C_2  and  C_3
    3  A    between atoms: C_3  and  C_4
    4  A    between atoms: C_4  and  C_5
    5  A    between atoms: C_5  and  C_6
    6  A    between atoms: C_6  and  C_7
    7  A    between atoms: C_7  and  C_8
    8  A    between atoms: C_8  and  C_9
    9  A    between atoms: C_9  and  C_10
   10  A    between atoms: C_10  and  C_11
   11  A    between atoms: C_11  and  C_12
   12  A    between atoms: C_12  and  N_13
   13  A    between atoms: C_14  and  C_16
   14  A    between atoms: C_16  and  C_17
   15  A    between atoms: C_20  and  O_21
   16  A    between atoms: C_22  and  O_23
   17  A    between atoms: O_23  and  C_24
                            x       y       z     vdW  Elec       q    Type
                         _______ _______ _______ _____ _____    ______ ____

>  <TORSDO>
F 15

>  <SCORE>
-5.857

>  <RMSD_LB>
5.454

>  <RMSD_UB>
10.703

$$$$
CHEMBL316007
 OpenBabel10172500183D

 27 27  0  0  0  0  0  0  0  0999 V2000
  139.9170  137.0830  150.6050 N   0  0  0  0  0  0  0  0  0  0  0  0
  138.5440  137.0540  150.4200 C   0  0  0  0  0  0  0  0  0  0  0  0
  137.8050  137.8870  150.9080 O   0  0  0  0  0  0  0  0  0  0  0  0
  140.4870  136.3920  150.1950 H   0  0  0  0  0  0  0  0  0  0  0  0
  140.5080  138.1340  151.4030 C   0  0  0  0  0  2  0  0  0  0  0  0
  140.6930  137.7330  152.8660 C   0  0  0  0  0  2  0  0  0  0  0  0
  142.1300  137.9720  153.3250 C   0  0  0  0  0  2  0  0  0  0  0  0
  143.1250  137.3950  152.3260 C   0  0  0  0  0  2  0  0  0  0  0  0
  144.3530  138.2750  152.2200 C   0  0  0  0  0  2  0  0  0  0  0  0
  144.1590  139.2980  151.1140 C   0  0  0  0  0  2  0  0  0  0  0  0
  145.4250  140.1180  150.9440 C   0  0  0  0  0  2  0  0  0  0  0  0
  145.0870  141.5970  150.9270 C   0  0  0  0  0  2  0  0  0  0  0  0
  145.8650  142.3200  152.0120 C   0  0  0  0  0  2  0  0  0  0  0  0
  147.3550  142.2460  151.7210 C   0  0  0  0  0  2  0  0  0  0  0  0
  147.4260  141.8950  154.1850 C   0  0  0  0  0  1  0  0  0  0  0  0
  148.0820  141.5540  152.8620 C   0  0  0  0  0  2  0  0  0  0  0  0
  138.0180  135.9140  149.5510 C   0  0  0  0  0  2  0  0  0  0  0  0
  136.6490  135.4380  149.9900 C   0  0  0  0  0  0  0  0  0  0  0  0
  136.4990  134.6940  151.1670 C   0  0  0  0  0  3  0  0  0  0  0  0
  135.2310  134.3150  151.6110 C   0  0  0  0  0  3  0  0  0  0  0  0
  134.0970  134.6620  150.8780 C   0  0  0  0  0  0  0  0  0  0  0  0
  134.2130  135.3800  149.6830 C   0  0  0  0  0  0  0  0  0  0  0  0
  135.4980  135.7620  149.2460 C   0  0  0  0  0  3  0  0  0  0  0  0
  132.8710  134.2830  151.3590 O   0  0  0  0  0  0  0  0  0  0  0  0
  132.5570  134.6330  152.1690 H   0  0  0  0  0  0  0  0  0  0  0  0
  133.1830  135.7850  148.8650 O   0  0  0  0  0  0  0  0  0  0  0  0
  132.6100  137.0620  149.1480 C   0  0  0  0  0  1  0  0  0  0  0  0
  1  5  1  0  0  0  0
  2  1  1  0  0  0  0
  2  3  2  0  0  0  0
  4  1  1  0  0  0  0
  5  6  1  0  0  0  0
  6  7  1  0  0  0  0
  8  7  1  0  0  0  0
  9  8  1  0  0  0  0
 10  9  1  0  0  0  0
 11 10  1  0  0  0  0
 12 11  1  0  0  0  0
 12 13  1  0  0  0  0
 14 13  1  0  0  0  0
 14 16  1  0  0  0  0
 16 15  1  0  0  0  0
 17 18  1  0  0  0  0
 17  2  1  0  0  0  0
 18 19  1  0  0  0  0
 19 20  2  0  0  0  0
 21 24  1  0  0  0  0
 21 20  1  0  0  0  0
 22 21  2  0  0  0  0
 23 22  1  0  0  0  0
 23 18  2  0  0  0  0
 24 25  1  0  0  0  0
 26 27  1  0  0  0  0
 26 22  1  0  0  0  0
M  END
>  <MODEL>
9

>  <REMARK>
 VINA RESULT:    -5.752      2.826      5.476
 INTER + INTRA:         -11.597
 INTER:                 -10.628
 INTRA:                  -0.969
 UNBOUND:                -0.969
  Name = CHEMBL316007
  17 active torsions:
  status: ('A' for Active; 'I' for Inactive)
    1  A    between atoms: C_1  and  C_2
    2  A    between atoms: C_2  and  C_3
    3  A    between atoms: C_3  and  C_4
    4  A    between atoms: C_4  and  C_5
    5  A    between atoms: C_5  and  C_6
    6  A    between atoms: C_6  and  C_7
    7  A    between atoms: C_7  and  C_8
    8  A    between atoms: C_8  and  C_9
    9  A    between atoms: C_9  and  C_10
   10  A    between atoms: C_10  and  C_11
   11  A    between atoms: C_11  and  C_12
   12  A    between atoms: C_12  and  N_13
   13  A    between atoms: C_14  and  C_16
   14  A    between atoms: C_16  and  C_17
   15  A    between atoms: C_20  and  O_21
   16  A    between atoms: C_22  and  O_23
   17  A    between atoms: O_23  and  C_24
                            x       y       z     vdW  Elec       q    Type
                         _______ _______ _______ _____ _____    ______ ____

>  <TORSDO>
F 15

>  <SCORE>
-5.752

>  <RMSD_LB>
2.826

>  <RMSD_UB>
5.476

$$$$
