CHEMBL562480
 OpenBabel10172500243D

 23 23  0  0  0  0  0  0  0  0999 V2000
  133.4370  135.0820  152.3060 O   0  0  0  0  0  0  0  0  0  0  0  0
  134.2800  135.7440  153.1400 C   0  0  0  0  0  0  0  0  0  0  0  0
  133.9530  136.6430  153.9030 O   0  0  0  0  0  0  0  0  0  0  0  0
  135.6900  135.2150  152.9920 C   0  0  0  0  0  2  0  0  0  0  0  0
  136.5680  136.2450  152.2830 C   0  0  0  0  0  2  0  0  0  0  0  0
  136.3500  136.2690  150.7730 C   0  0  0  0  0  2  0  0  0  0  0  0
  136.9760  135.0310  150.1270 C   0  0  0  0  0  2  0  0  0  0  0  0
  136.9940  135.1430  148.6050 C   0  0  0  0  0  2  0  0  0  0  0  0
  138.1690  134.3680  148.0090 C   0  0  0  0  0  2  0  0  0  0  0  0
  138.0690  134.3090  146.4860 C   0  0  0  0  0  2  0  0  0  0  0  0
  136.8790  132.1380  146.0560 C   0  0  0  0  0  1  0  0  0  0  0  0
  136.7650  133.6530  146.0360 C   0  0  0  0  0  2  0  0  0  0  0  0
  133.8810  133.7850  151.8830 C   0  0  0  0  0  2  0  0  0  0  0  0
  133.7200  133.6690  150.3900 C   0  0  0  0  0  0  0  0  0  0  0  0
  134.1270  132.5050  149.7290 C   0  0  0  0  0  3  0  0  0  0  0  0
  133.9740  132.3900  148.3480 C   0  0  0  0  0  3  0  0  0  0  0  0
  133.4050  133.4350  147.6100 C   0  0  0  0  0  0  0  0  0  0  0  0
  132.9880  134.6080  148.2500 C   0  0  0  0  0  0  0  0  0  0  0  0
  133.1460  134.7080  149.6410 C   0  0  0  0  0  3  0  0  0  0  0  0
  133.2710  133.2670  146.2590 O   0  0  0  0  0  0  0  0  0  0  0  0
  134.0320  133.2150  145.7160 H   0  0  0  0  0  0  0  0  0  0  0  0
  132.4240  135.7240  147.6940 O   0  0  0  0  0  0  0  0  0  0  0  0
  132.9280  136.9930  148.0850 C   0  0  0  0  0  1  0  0  0  0  0  0
  1  2  1  0  0  0  0
  2  3  2  0  0  0  0
  4  2  1  0  0  0  0
  5  4  1  0  0  0  0
  6  5  1  0  0  0  0
  7  6  1  0  0  0  0
  8  7  1  0  0  0  0
  9  8  1  0  0  0  0
 10  9  1  0  0  0  0
 12 11  1  0  0  0  0
 12 10  1  0  0  0  0
 13  1  1  0  0  0  0
 14 13  1  0  0  0  0
 15 14  1  0  0  0  0
 16 15  2  0  0  0  0
 17 18  2  0  0  0  0
 17 16  1  0  0  0  0
 18 19  1  0  0  0  0
 19 14  2  0  0  0  0
 20 17  1  0  0  0  0
 21 20  1  0  0  0  0
 22 23  1  0  0  0  0
 22 18  1  0  0  0  0
M  END
>  <MODEL>
1

>  <REMARK>
 VINA RESULT:    -6.435      0.000      0.000
 INTER + INTRA:         -12.101
 INTER:                 -10.009
 INTRA:                  -2.092
 UNBOUND:                -0.963
  Name = CHEMBL562480
  15 active torsions:
  status: ('A' for Active; 'I' for Inactive)
    1  A    between atoms: C_1  and  C_2
    2  A    between atoms: C_2  and  C_3
    3  A    between atoms: C_3  and  C_4
    4  A    between atoms: C_4  and  C_5
    5  A    between atoms: C_5  and  C_6
    6  A    between atoms: C_6  and  C_7
    7  A    between atoms: C_7  and  C_8
    8  A    between atoms: C_8  and  C_9
    9  A    between atoms: C_9  and  C_10
   10  A    between atoms: C_10  and  O_12
   11  A    between atoms: O_12  and  C_13
   12  A    between atoms: C_13  and  C_14
   13  A    between atoms: C_17  and  O_18
   14  A    between atoms: C_19  and  O_20
   15  A    between atoms: O_20  and  C_21
                            x       y       z     vdW  Elec       q    Type
                         _______ _______ _______ _____ _____    ______ ____

>  <TORSDO>
F 13

>  <SCORE>
-6.435

>  <RMSD_LB>
0.000

>  <RMSD_UB>
0.000

$$$$
CHEMBL562480
 OpenBabel10172500243D

 23 23  0  0  0  0  0  0  0  0999 V2000
  137.2400  138.5000  155.4090 O   0  0  0  0  0  0  0  0  0  0  0  0
  138.2410  138.6180  154.4980 C   0  0  0  0  0  0  0  0  0  0  0  0
  139.1610  139.4210  154.5640 O   0  0  0  0  0  0  0  0  0  0  0  0
  138.0570  137.6130  153.3810 C   0  0  0  0  0  2  0  0  0  0  0  0
  138.8050  138.0730  152.1300 C   0  0  0  0  0  2  0  0  0  0  0  0
  138.2250  137.4880  150.8450 C   0  0  0  0  0  2  0  0  0  0  0  0
  136.9180  136.7500  151.1420 C   0  0  0  0  0  2  0  0  0  0  0  0
  136.8640  135.4000  150.4320 C   0  0  0  0  0  2  0  0  0  0  0  0
  136.1210  134.3640  151.2750 C   0  0  0  0  0  2  0  0  0  0  0  0
  135.0350  135.0250  152.1220 C   0  0  0  0  0  2  0  0  0  0  0  0
  133.7070  133.3240  150.8350 C   0  0  0  0  0  1  0  0  0  0  0  0
  133.6400  134.5770  151.6910 C   0  0  0  0  0  2  0  0  0  0  0  0
  137.5500  137.7110  156.5660 C   0  0  0  0  0  2  0  0  0  0  0  0
  136.4890  136.6570  156.7460 C   0  0  0  0  0  0  0  0  0  0  0  0
  135.8250  136.1320  155.6330 C   0  0  0  0  0  3  0  0  0  0  0  0
  134.8470  135.1510  155.7930 C   0  0  0  0  0  3  0  0  0  0  0  0
  134.5240  134.6770  157.0700 C   0  0  0  0  0  0  0  0  0  0  0  0
  135.1770  135.1860  158.1990 C   0  0  0  0  0  0  0  0  0  0  0  0
  136.1610  136.1710  158.0210 C   0  0  0  0  0  3  0  0  0  0  0  0
  133.5640  133.7100  157.1710 O   0  0  0  0  0  0  0  0  0  0  0  0
  132.9750  133.5570  156.4590 H   0  0  0  0  0  0  0  0  0  0  0  0
  134.9880  134.8500  159.5130 O   0  0  0  0  0  0  0  0  0  0  0  0
  133.9820  135.5400  160.2410 C   0  0  0  0  0  1  0  0  0  0  0  0
  1 13  1  0  0  0  0
  2  3  2  0  0  0  0
  2  1  1  0  0  0  0
  4  2  1  0  0  0  0
  5  4  1  0  0  0  0
  6  7  1  0  0  0  0
  6  5  1  0  0  0  0
  8  7  1  0  0  0  0
  8  9  1  0  0  0  0
  9 10  1  0  0  0  0
 11 12  1  0  0  0  0
 12 10  1  0  0  0  0
 13 14  1  0  0  0  0
 14 19  1  0  0  0  0
 15 16  1  0  0  0  0
 15 14  2  0  0  0  0
 16 17  2  0  0  0  0
 17 20  1  0  0  0  0
 17 18  1  0  0  0  0
 18 22  1  0  0  0  0
 19 18  2  0  0  0  0
 21 20  1  0  0  0  0
 22 23  1  0  0  0  0
M  END
>  <MODEL>
2

>  <REMARK>
 VINA RESULT:    -6.254      4.226      7.324
 INTER + INTRA:         -11.788
 INTER:                 -10.456
 INTRA:                  -1.332
 UNBOUND:                -0.963
  Name = CHEMBL562480
  15 active torsions:
  status: ('A' for Active; 'I' for Inactive)
    1  A    between atoms: C_1  and  C_2
    2  A    between atoms: C_2  and  C_3
    3  A    between atoms: C_3  and  C_4
    4  A    between atoms: C_4  and  C_5
    5  A    between atoms: C_5  and  C_6
    6  A    between atoms: C_6  and  C_7
    7  A    between atoms: C_7  and  C_8
    8  A    between atoms: C_8  and  C_9
    9  A    between atoms: C_9  and  C_10
   10  A    between atoms: C_10  and  O_12
   11  A    between atoms: O_12  and  C_13
   12  A    between atoms: C_13  and  C_14
   13  A    between atoms: C_17  and  O_18
   14  A    between atoms: C_19  and  O_20
   15  A    between atoms: O_20  and  C_21
                            x       y       z     vdW  Elec       q    Type
                         _______ _______ _______ _____ _____    ______ ____

>  <TORSDO>
F 13

>  <SCORE>
-6.254

>  <RMSD_LB>
4.226

>  <RMSD_UB>
7.324

$$$$
CHEMBL562480
 OpenBabel10172500243D

 23 23  0  0  0  0  0  0  0  0999 V2000
  143.9890  137.9550  152.2290 O   0  0  0  0  0  0  0  0  0  0  0  0
  145.2320  137.7020  151.7410 C   0  0  0  0  0  0  0  0  0  0  0  0
  145.8090  138.3790  150.9020 O   0  0  0  0  0  0  0  0  0  0  0  0
  145.8060  136.4580  152.3840 C   0  0  0  0  0  2  0  0  0  0  0  0
  145.8720  136.6300  153.9010 C   0  0  0  0  0  2  0  0  0  0  0  0
  147.0470  137.4960  154.3470 C   0  0  0  0  0  2  0  0  0  0  0  0
  146.5480  138.6810  155.1770 C   0  0  0  0  0  2  0  0  0  0  0  0
  147.0260  140.0100  154.5990 C   0  0  0  0  0  2  0  0  0  0  0  0
  145.9250  140.6850  153.7830 C   0  0  0  0  0  2  0  0  0  0  0  0
  146.3810  142.0520  153.2750 C   0  0  0  0  0  2  0  0  0  0  0  0
  147.7920  141.5700  151.2530 C   0  0  0  0  0  1  0  0  0  0  0  0
  147.7990  141.9940  152.7120 C   0  0  0  0  0  2  0  0  0  0  0  0
  142.9270  137.2020  151.6270 C   0  0  0  0  0  2  0  0  0  0  0  0
  141.6190  137.5920  152.2670 C   0  0  0  0  0  0  0  0  0  0  0  0
  140.4410  137.5880  151.5140 C   0  0  0  0  0  3  0  0  0  0  0  0
  139.2280  137.9410  152.1030 C   0  0  0  0  0  3  0  0  0  0  0  0
  139.1760  138.2970  153.4560 C   0  0  0  0  0  0  0  0  0  0  0  0
  140.3420  138.3060  154.2300 C   0  0  0  0  0  0  0  0  0  0  0  0
  141.5550  137.9450  153.6230 C   0  0  0  0  0  3  0  0  0  0  0  0
  137.9590  138.6270  153.9860 O   0  0  0  0  0  0  0  0  0  0  0  0
  137.7160  138.3120  154.8340 H   0  0  0  0  0  0  0  0  0  0  0  0
  140.4810  138.6300  155.5530 O   0  0  0  0  0  0  0  0  0  0  0  0
  140.3740  137.5880  156.5120 C   0  0  0  0  0  1  0  0  0  0  0  0
  2  1  1  0  0  0  0
  2  4  1  0  0  0  0
  3  2  2  0  0  0  0
  4  5  1  0  0  0  0
  5  6  1  0  0  0  0
  6  7  1  0  0  0  0
  8  7  1  0  0  0  0
  9  8  1  0  0  0  0
 10  9  1  0  0  0  0
 11 12  1  0  0  0  0
 12 10  1  0  0  0  0
 13  1  1  0  0  0  0
 13 14  1  0  0  0  0
 14 19  1  0  0  0  0
 15 16  1  0  0  0  0
 15 14  2  0  0  0  0
 16 17  2  0  0  0  0
 17 20  1  0  0  0  0
 17 18  1  0  0  0  0
 18 22  1  0  0  0  0
 19 18  2  0  0  0  0
 20 21  1  0  0  0  0
 22 23  1  0  0  0  0
M  END
>  <MODEL>
3

>  <REMARK>
 VINA RESULT:    -6.033      8.742     11.222
 INTER + INTRA:         -11.405
 INTER:                 -10.144
 INTRA:                  -1.261
 UNBOUND:                -0.963
  Name = CHEMBL562480
  15 active torsions:
  status: ('A' for Active; 'I' for Inactive)
    1  A    between atoms: C_1  and  C_2
    2  A    between atoms: C_2  and  C_3
    3  A    between atoms: C_3  and  C_4
    4  A    between atoms: C_4  and  C_5
    5  A    between atoms: C_5  and  C_6
    6  A    between atoms: C_6  and  C_7
    7  A    between atoms: C_7  and  C_8
    8  A    between atoms: C_8  and  C_9
    9  A    between atoms: C_9  and  C_10
   10  A    between atoms: C_10  and  O_12
   11  A    between atoms: O_12  and  C_13
   12  A    between atoms: C_13  and  C_14
   13  A    between atoms: C_17  and  O_18
   14  A    between atoms: C_19  and  O_20
   15  A    between atoms: O_20  and  C_21
                            x       y       z     vdW  Elec       q    Type
                         _______ _______ _______ _____ _____    ______ ____

>  <TORSDO>
F 13

>  <SCORE>
-6.033

>  <RMSD_LB>
8.742

>  <RMSD_UB>
11.222

$$$$
CHEMBL562480
 OpenBabel10172500243D

 23 23  0  0  0  0  0  0  0  0999 V2000
  133.4510  134.6570  152.4890 O   0  0  0  0  0  0  0  0  0  0  0  0
  133.9660  134.9560  153.7110 C   0  0  0  0  0  0  0  0  0  0  0  0
  133.3220  135.3790  154.6610 O   0  0  0  0  0  0  0  0  0  0  0  0
  135.4560  134.6940  153.7330 C   0  0  0  0  0  2  0  0  0  0  0  0
  136.2180  136.0010  153.9520 C   0  0  0  0  0  2  0  0  0  0  0  0
  136.7510  136.5990  152.6540 C   0  0  0  0  0  2  0  0  0  0  0  0
  138.0040  137.4340  152.9300 C   0  0  0  0  0  2  0  0  0  0  0  0
  137.9640  138.0580  154.3230 C   0  0  0  0  0  2  0  0  0  0  0  0
  139.3440  138.0290  154.9790 C   0  0  0  0  0  2  0  0  0  0  0  0
  139.2450  137.5850  156.4380 C   0  0  0  0  0  2  0  0  0  0  0  0
  137.4730  136.0790  157.3900 C   0  0  0  0  0  1  0  0  0  0  0  0
  137.7910  137.4790  156.8930 C   0  0  0  0  0  2  0  0  0  0  0  0
  134.0710  133.5550  151.8130 C   0  0  0  0  0  2  0  0  0  0  0  0
  133.9100  133.7320  150.3250 C   0  0  0  0  0  0  0  0  0  0  0  0
  134.0590  132.6380  149.4680 C   0  0  0  0  0  3  0  0  0  0  0  0
  133.9050  132.7960  148.0910 C   0  0  0  0  0  3  0  0  0  0  0  0
  133.5940  134.0510  147.5540 C   0  0  0  0  0  0  0  0  0  0  0  0
  133.4380  135.1610  148.3930 C   0  0  0  0  0  0  0  0  0  0  0  0
  133.5940  134.9850  149.7760 C   0  0  0  0  0  3  0  0  0  0  0  0
  133.4460  134.1490  146.1980 O   0  0  0  0  0  0  0  0  0  0  0  0
  134.1850  134.0230  145.6350 H   0  0  0  0  0  0  0  0  0  0  0  0
  133.1440  136.4520  148.0470 O   0  0  0  0  0  0  0  0  0  0  0  0
  134.0730  137.1550  147.2340 C   0  0  0  0  0  1  0  0  0  0  0  0
  1  2  1  0  0  0  0
  2  4  1  0  0  0  0
  2  3  2  0  0  0  0
  4  5  1  0  0  0  0
  6  7  1  0  0  0  0
  6  5  1  0  0  0  0
  7  8  1  0  0  0  0
  8  9  1  0  0  0  0
  9 10  1  0  0  0  0
 10 12  1  0  0  0  0
 12 11  1  0  0  0  0
 13  1  1  0  0  0  0
 14 13  1  0  0  0  0
 15 14  2  0  0  0  0
 16 15  1  0  0  0  0
 17 16  2  0  0  0  0
 17 18  1  0  0  0  0
 18 19  2  0  0  0  0
 19 14  1  0  0  0  0
 20 17  1  0  0  0  0
 21 20  1  0  0  0  0
 22 18  1  0  0  0  0
 23 22  1  0  0  0  0
M  END
>  <MODEL>
4

>  <REMARK>
 VINA RESULT:    -5.904      2.314      4.892
 INTER + INTRA:         -11.181
 INTER:                 -10.004
 INTRA:                  -1.177
 UNBOUND:                -0.963
  Name = CHEMBL562480
  15 active torsions:
  status: ('A' for Active; 'I' for Inactive)
    1  A    between atoms: C_1  and  C_2
    2  A    between atoms: C_2  and  C_3
    3  A    between atoms: C_3  and  C_4
    4  A    between atoms: C_4  and  C_5
    5  A    between atoms: C_5  and  C_6
    6  A    between atoms: C_6  and  C_7
    7  A    between atoms: C_7  and  C_8
    8  A    between atoms: C_8  and  C_9
    9  A    between atoms: C_9  and  C_10
   10  A    between atoms: C_10  and  O_12
   11  A    between atoms: O_12  and  C_13
   12  A    between atoms: C_13  and  C_14
   13  A    between atoms: C_17  and  O_18
   14  A    between atoms: C_19  and  O_20
   15  A    between atoms: O_20  and  C_21
                            x       y       z     vdW  Elec       q    Type
                         _______ _______ _______ _____ _____    ______ ____

>  <TORSDO>
F 13

>  <SCORE>
-5.904

>  <RMSD_LB>
2.314

>  <RMSD_UB>
4.892

$$$$
CHEMBL562480
 OpenBabel10172500243D

 23 23  0  0  0  0  0  0  0  0999 V2000
  144.9000  140.1330  150.0620 O   0  0  0  0  0  0  0  0  0  0  0  0
  143.7100  140.0340  149.4130 C   0  0  0  0  0  0  0  0  0  0  0  0
  143.5740  139.9670  148.1990 O   0  0  0  0  0  0  0  0  0  0  0  0
  142.5690  140.0210  150.4060 C   0  0  0  0  0  2  0  0  0  0  0  0
  141.4270  139.1480  149.8860 C   0  0  0  0  0  2  0  0  0  0  0  0
  141.7850  137.6650  149.8520 C   0  0  0  0  0  2  0  0  0  0  0  0
  141.9920  137.1370  151.2740 C   0  0  0  0  0  2  0  0  0  0  0  0
  140.8950  137.6250  152.2170 C   0  0  0  0  0  2  0  0  0  0  0  0
  141.4730  138.0220  153.5750 C   0  0  0  0  0  2  0  0  0  0  0  0
  142.9970  137.9060  153.5760 C   0  0  0  0  0  2  0  0  0  0  0  0
  144.5990  139.3080  154.9100 C   0  0  0  0  0  1  0  0  0  0  0  0
  143.6610  139.2740  153.7160 C   0  0  0  0  0  2  0  0  0  0  0  0
  145.1730  141.4090  150.6570 C   0  0  0  0  0  2  0  0  0  0  0  0
  146.1270  141.2250  151.8080 C   0  0  0  0  0  0  0  0  0  0  0  0
  146.2510  142.2200  152.7830 C   0  0  0  0  0  3  0  0  0  0  0  0
  147.1280  142.0510  153.8540 C   0  0  0  0  0  3  0  0  0  0  0  0
  147.8880  140.8820  153.9680 C   0  0  0  0  0  0  0  0  0  0  0  0
  147.7790  139.8710  153.0050 C   0  0  0  0  0  0  0  0  0  0  0  0
  146.8900  140.0540  151.9350 C   0  0  0  0  0  3  0  0  0  0  0  0
  148.7270  140.7630  155.0420 O   0  0  0  0  0  0  0  0  0  0  0  0
  148.3970  140.4520  155.8610 H   0  0  0  0  0  0  0  0  0  0  0  0
  148.4430  138.6740  152.9510 O   0  0  0  0  0  0  0  0  0  0  0  0
  147.8510  137.6150  152.2130 C   0  0  0  0  0  1  0  0  0  0  0  0
  1 13  1  0  0  0  0
  2  1  1  0  0  0  0
  2  4  1  0  0  0  0
  3  2  2  0  0  0  0
  5  4  1  0  0  0  0
  6  5  1  0  0  0  0
  6  7  1  0  0  0  0
  7  8  1  0  0  0  0
  8  9  1  0  0  0  0
  9 10  1  0  0  0  0
 10 12  1  0  0  0  0
 12 11  1  0  0  0  0
 13 14  1  0  0  0  0
 14 19  2  0  0  0  0
 14 15  1  0  0  0  0
 15 16  2  0  0  0  0
 16 17  1  0  0  0  0
 17 20  1  0  0  0  0
 18 17  2  0  0  0  0
 19 18  1  0  0  0  0
 20 21  1  0  0  0  0
 22 18  1  0  0  0  0
 23 22  1  0  0  0  0
M  END
>  <MODEL>
5

>  <REMARK>
 VINA RESULT:    -5.894     10.034     13.060
 INTER + INTRA:         -11.164
 INTER:                  -9.344
 INTRA:                  -1.820
 UNBOUND:                -0.963
  Name = CHEMBL562480
  15 active torsions:
  status: ('A' for Active; 'I' for Inactive)
    1  A    between atoms: C_1  and  C_2
    2  A    between atoms: C_2  and  C_3
    3  A    between atoms: C_3  and  C_4
    4  A    between atoms: C_4  and  C_5
    5  A    between atoms: C_5  and  C_6
    6  A    between atoms: C_6  and  C_7
    7  A    between atoms: C_7  and  C_8
    8  A    between atoms: C_8  and  C_9
    9  A    between atoms: C_9  and  C_10
   10  A    between atoms: C_10  and  O_12
   11  A    between atoms: O_12  and  C_13
   12  A    between atoms: C_13  and  C_14
   13  A    between atoms: C_17  and  O_18
   14  A    between atoms: C_19  and  O_20
   15  A    between atoms: O_20  and  C_21
                            x       y       z     vdW  Elec       q    Type
                         _______ _______ _______ _____ _____    ______ ____

>  <TORSDO>
F 13

>  <SCORE>
-5.894

>  <RMSD_LB>
10.034

>  <RMSD_UB>
13.060

$$$$
CHEMBL562480
 OpenBabel10172500243D

 23 23  0  0  0  0  0  0  0  0999 V2000
  135.3730  136.5850  152.0680 O   0  0  0  0  0  0  0  0  0  0  0  0
  134.2540  136.1260  152.6870 C   0  0  0  0  0  0  0  0  0  0  0  0
  134.0490  136.1680  153.8920 O   0  0  0  0  0  0  0  0  0  0  0  0
  133.2910  135.5480  151.6720 C   0  0  0  0  0  2  0  0  0  0  0  0
  134.0330  134.6230  150.7080 C   0  0  0  0  0  2  0  0  0  0  0  0
  133.1290  133.5560  150.0990 C   0  0  0  0  0  2  0  0  0  0  0  0
  133.9610  132.5480  149.3020 C   0  0  0  0  0  2  0  0  0  0  0  0
  134.5140  133.1670  148.0210 C   0  0  0  0  0  2  0  0  0  0  0  0
  133.4380  133.9660  147.2870 C   0  0  0  0  0  2  0  0  0  0  0  0
  133.9490  135.3580  146.9160 C   0  0  0  0  0  2  0  0  0  0  0  0
  132.6760  137.0410  148.2810 C   0  0  0  0  0  1  0  0  0  0  0  0
  132.8190  136.3860  146.9180 C   0  0  0  0  0  2  0  0  0  0  0  0
  136.5990  135.9550  152.4650 C   0  0  0  0  0  2  0  0  0  0  0  0
  137.5250  136.9940  153.0430 C   0  0  0  0  0  0  0  0  0  0  0  0
  138.3470  137.7480  152.2000 C   0  0  0  0  0  3  0  0  0  0  0  0
  139.2010  138.7150  152.7300 C   0  0  0  0  0  3  0  0  0  0  0  0
  139.2390  138.9460  154.1090 C   0  0  0  0  0  0  0  0  0  0  0  0
  138.4230  138.2050  154.9730 C   0  0  0  0  0  0  0  0  0  0  0  0
  137.5670  137.2370  154.4240 C   0  0  0  0  0  3  0  0  0  0  0  0
  140.0880  139.9110  154.5760 O   0  0  0  0  0  0  0  0  0  0  0  0
  139.8780  140.8160  154.4580 H   0  0  0  0  0  0  0  0  0  0  0  0
  138.3330  138.2880  156.3370 O   0  0  0  0  0  0  0  0  0  0  0  0
  137.0990  137.9400  156.9470 C   0  0  0  0  0  1  0  0  0  0  0  0
  1 13  1  0  0  0  0
  1  2  1  0  0  0  0
  2  3  2  0  0  0  0
  4  2  1  0  0  0  0
  5  4  1  0  0  0  0
  6  5  1  0  0  0  0
  7  6  1  0  0  0  0
  8  7  1  0  0  0  0
  9  8  1  0  0  0  0
 10 12  1  0  0  0  0
 10  9  1  0  0  0  0
 12 11  1  0  0  0  0
 13 14  1  0  0  0  0
 14 19  1  0  0  0  0
 15 16  1  0  0  0  0
 15 14  2  0  0  0  0
 16 17  2  0  0  0  0
 17 20  1  0  0  0  0
 17 18  1  0  0  0  0
 18 22  1  0  0  0  0
 19 18  2  0  0  0  0
 21 20  1  0  0  0  0
 22 23  1  0  0  0  0
M  END
>  <MODEL>
6

>  <REMARK>
 VINA RESULT:    -5.884      2.849      6.678
 INTER + INTRA:         -11.147
 INTER:                 -10.129
 INTRA:                  -1.018
 UNBOUND:                -0.963
  Name = CHEMBL562480
  15 active torsions:
  status: ('A' for Active; 'I' for Inactive)
    1  A    between atoms: C_1  and  C_2
    2  A    between atoms: C_2  and  C_3
    3  A    between atoms: C_3  and  C_4
    4  A    between atoms: C_4  and  C_5
    5  A    between atoms: C_5  and  C_6
    6  A    between atoms: C_6  and  C_7
    7  A    between atoms: C_7  and  C_8
    8  A    between atoms: C_8  and  C_9
    9  A    between atoms: C_9  and  C_10
   10  A    between atoms: C_10  and  O_12
   11  A    between atoms: O_12  and  C_13
   12  A    between atoms: C_13  and  C_14
   13  A    between atoms: C_17  and  O_18
   14  A    between atoms: C_19  and  O_20
   15  A    between atoms: O_20  and  C_21
                            x       y       z     vdW  Elec       q    Type
                         _______ _______ _______ _____ _____    ______ ____

>  <TORSDO>
F 13

>  <SCORE>
-5.884

>  <RMSD_LB>
2.849

>  <RMSD_UB>
6.678

$$$$
CHEMBL562480
 OpenBabel10172500243D

 23 23  0  0  0  0  0  0  0  0999 V2000
  134.8680  136.2440  153.6600 O   0  0  0  0  0  0  0  0  0  0  0  0
  134.9170  136.0210  152.3210 C   0  0  0  0  0  0  0  0  0  0  0  0
  133.9480  135.7940  151.6090 O   0  0  0  0  0  0  0  0  0  0  0  0
  136.3470  136.0890  151.8280 C   0  0  0  0  0  2  0  0  0  0  0  0
  136.5340  135.1650  150.6250 C   0  0  0  0  0  2  0  0  0  0  0  0
  136.7820  135.9270  149.3270 C   0  0  0  0  0  2  0  0  0  0  0  0
  136.2000  135.1560  148.1400 C   0  0  0  0  0  2  0  0  0  0  0  0
  135.0850  135.9400  147.4550 C   0  0  0  0  0  2  0  0  0  0  0  0
  133.7280  135.6360  148.0890 C   0  0  0  0  0  2  0  0  0  0  0  0
  133.3210  134.1840  147.8400 C   0  0  0  0  0  2  0  0  0  0  0  0
  133.9440  132.7840  149.8310 C   0  0  0  0  0  1  0  0  0  0  0  0
  132.8200  133.5170  149.1190 C   0  0  0  0  0  2  0  0  0  0  0  0
  135.6400  135.3410  154.4640 C   0  0  0  0  0  2  0  0  0  0  0  0
  136.2610  136.1020  155.6060 C   0  0  0  0  0  0  0  0  0  0  0  0
  137.0860  137.2020  155.3510 C   0  0  0  0  0  3  0  0  0  0  0  0
  137.6580  137.9130  156.4050 C   0  0  0  0  0  3  0  0  0  0  0  0
  137.4070  137.5380  157.7290 C   0  0  0  0  0  0  0  0  0  0  0  0
  136.5830  136.4410  158.0100 C   0  0  0  0  0  0  0  0  0  0  0  0
  136.0130  135.7370  156.9380 C   0  0  0  0  0  3  0  0  0  0  0  0
  137.9860  138.2740  158.7260 O   0  0  0  0  0  0  0  0  0  0  0  0
  138.8340  138.0400  159.0490 H   0  0  0  0  0  0  0  0  0  0  0  0
  136.2360  135.9300  159.2320 O   0  0  0  0  0  0  0  0  0  0  0  0
  134.8550  135.7530  159.5150 C   0  0  0  0  0  1  0  0  0  0  0  0
  1 13  1  0  0  0  0
  2  1  1  0  0  0  0
  3  2  2  0  0  0  0
  4  2  1  0  0  0  0
  5  4  1  0  0  0  0
  6  5  1  0  0  0  0
  7  6  1  0  0  0  0
  8  9  1  0  0  0  0
  8  7  1  0  0  0  0
 10  9  1  0  0  0  0
 10 12  1  0  0  0  0
 12 11  1  0  0  0  0
 13 14  1  0  0  0  0
 14 19  1  0  0  0  0
 15 14  2  0  0  0  0
 15 16  1  0  0  0  0
 16 17  2  0  0  0  0
 17 18  1  0  0  0  0
 17 20  1  0  0  0  0
 18 22  1  0  0  0  0
 19 18  2  0  0  0  0
 20 21  1  0  0  0  0
 22 23  1  0  0  0  0
M  END
>  <MODEL>
7

>  <REMARK>
 VINA RESULT:    -5.710      3.364      7.212
 INTER + INTRA:         -10.847
 INTER:                  -9.496
 INTRA:                  -1.350
 UNBOUND:                -0.963
  Name = CHEMBL562480
  15 active torsions:
  status: ('A' for Active; 'I' for Inactive)
    1  A    between atoms: C_1  and  C_2
    2  A    between atoms: C_2  and  C_3
    3  A    between atoms: C_3  and  C_4
    4  A    between atoms: C_4  and  C_5
    5  A    between atoms: C_5  and  C_6
    6  A    between atoms: C_6  and  C_7
    7  A    between atoms: C_7  and  C_8
    8  A    between atoms: C_8  and  C_9
    9  A    between atoms: C_9  and  C_10
   10  A    between atoms: C_10  and  O_12
   11  A    between atoms: O_12  and  C_13
   12  A    between atoms: C_13  and  C_14
   13  A    between atoms: C_17  and  O_18
   14  A    between atoms: C_19  and  O_20
   15  A    between atoms: O_20  and  C_21
                            x       y       z     vdW  Elec       q    Type
                         _______ _______ _______ _____ _____    ______ ____

>  <TORSDO>
F 13

>  <SCORE>
-5.710

>  <RMSD_LB>
3.364

>  <RMSD_UB>
7.212

$$$$
CHEMBL562480
 OpenBabel10172500243D

 23 23  0  0  0  0  0  0  0  0999 V2000
  145.1740  141.3080  151.7340 O   0  0  0  0  0  0  0  0  0  0  0  0
  146.2690  142.0450  152.0550 C   0  0  0  0  0  0  0  0  0  0  0  0
  147.0780  142.4900  151.2530 O   0  0  0  0  0  0  0  0  0  0  0  0
  146.3540  142.2360  153.5550 C   0  0  0  0  0  2  0  0  0  0  0  0
  147.6830  141.6960  154.0810 C   0  0  0  0  0  2  0  0  0  0  0  0
  147.9370  140.2480  153.6710 C   0  0  0  0  0  2  0  0  0  0  0  0
  148.0200  139.3540  154.9100 C   0  0  0  0  0  2  0  0  0  0  0  0
  146.6490  138.8110  155.3030 C   0  0  0  0  0  2  0  0  0  0  0  0
  145.9180  138.2310  154.0920 C   0  0  0  0  0  2  0  0  0  0  0  0
  144.4510  138.6570  154.0840 C   0  0  0  0  0  2  0  0  0  0  0  0
  142.1740  137.9180  153.3180 C   0  0  0  0  0  1  0  0  0  0  0  0
  143.5250  137.4660  153.8470 C   0  0  0  0  0  2  0  0  0  0  0  0
  145.1490  140.7920  150.3960 C   0  0  0  0  0  2  0  0  0  0  0  0
  145.4260  139.3110  150.4310 C   0  0  0  0  0  0  0  0  0  0  0  0
  146.7410  138.8460  150.5370 C   0  0  0  0  0  3  0  0  0  0  0  0
  147.0020  137.4760  150.5750 C   0  0  0  0  0  3  0  0  0  0  0  0
  145.9510  136.5540  150.5160 C   0  0  0  0  0  0  0  0  0  0  0  0
  144.6260  136.9970  150.4120 C   0  0  0  0  0  0  0  0  0  0  0  0
  144.3800  138.3780  150.3770 C   0  0  0  0  0  3  0  0  0  0  0  0
  146.2610  135.2230  150.5660 O   0  0  0  0  0  0  0  0  0  0  0  0
  146.0900  134.7310  151.3440 H   0  0  0  0  0  0  0  0  0  0  0  0
  143.4840  136.2470  150.3360 O   0  0  0  0  0  0  0  0  0  0  0  0
  143.1800  135.6150  149.1000 C   0  0  0  0  0  1  0  0  0  0  0  0
  1  2  1  0  0  0  0
  2  4  1  0  0  0  0
  3  2  2  0  0  0  0
  4  5  1  0  0  0  0
  6  5  1  0  0  0  0
  6  7  1  0  0  0  0
  7  8  1  0  0  0  0
  9  8  1  0  0  0  0
 10  9  1  0  0  0  0
 11 12  1  0  0  0  0
 12 10  1  0  0  0  0
 13 14  1  0  0  0  0
 13  1  1  0  0  0  0
 14 15  1  0  0  0  0
 15 16  2  0  0  0  0
 17 20  1  0  0  0  0
 17 16  1  0  0  0  0
 18 17  2  0  0  0  0
 19 18  1  0  0  0  0
 19 14  2  0  0  0  0
 20 21  1  0  0  0  0
 22 18  1  0  0  0  0
 23 22  1  0  0  0  0
M  END
>  <MODEL>
8

>  <REMARK>
 VINA RESULT:    -5.673     10.234     12.561
 INTER + INTRA:         -10.782
 INTER:                  -8.469
 INTRA:                  -2.313
 UNBOUND:                -0.963
  Name = CHEMBL562480
  15 active torsions:
  status: ('A' for Active; 'I' for Inactive)
    1  A    between atoms: C_1  and  C_2
    2  A    between atoms: C_2  and  C_3
    3  A    between atoms: C_3  and  C_4
    4  A    between atoms: C_4  and  C_5
    5  A    between atoms: C_5  and  C_6
    6  A    between atoms: C_6  and  C_7
    7  A    between atoms: C_7  and  C_8
    8  A    between atoms: C_8  and  C_9
    9  A    between atoms: C_9  and  C_10
   10  A    between atoms: C_10  and  O_12
   11  A    between atoms: O_12  and  C_13
   12  A    between atoms: C_13  and  C_14
   13  A    between atoms: C_17  and  O_18
   14  A    between atoms: C_19  and  O_20
   15  A    between atoms: O_20  and  C_21
                            x       y       z     vdW  Elec       q    Type
                         _______ _______ _______ _____ _____    ______ ____

>  <TORSDO>
F 13

>  <SCORE>
-5.673

>  <RMSD_LB>
10.234

>  <RMSD_UB>
12.561

$$$$
CHEMBL562480
 OpenBabel10172500243D

 23 23  0  0  0  0  0  0  0  0999 V2000
  133.6590  134.6240  152.4020 O   0  0  0  0  0  0  0  0  0  0  0  0
  134.4210  134.3200  153.4850 C   0  0  0  0  0  0  0  0  0  0  0  0
  134.0140  133.7770  154.5020 O   0  0  0  0  0  0  0  0  0  0  0  0
  135.8540  134.7520  153.2580 C   0  0  0  0  0  2  0  0  0  0  0  0
  136.0550  136.1860  153.7470 C   0  0  0  0  0  2  0  0  0  0  0  0
  136.1880  136.2810  155.2640 C   0  0  0  0  0  2  0  0  0  0  0  0
  137.0050  137.5170  155.6490 C   0  0  0  0  0  2  0  0  0  0  0  0
  138.4480  137.4060  155.1660 C   0  0  0  0  0  2  0  0  0  0  0  0
  138.9100  138.7050  154.5070 C   0  0  0  0  0  2  0  0  0  0  0  0
  139.7010  138.4190  153.2310 C   0  0  0  0  0  2  0  0  0  0  0  0
  139.5780  137.3730  150.9490 C   0  0  0  0  0  1  0  0  0  0  0  0
  138.7830  137.9870  152.0900 C   0  0  0  0  0  2  0  0  0  0  0  0
  133.5550  133.5920  151.4120 C   0  0  0  0  0  2  0  0  0  0  0  0
  133.3700  134.2230  150.0560 C   0  0  0  0  0  0  0  0  0  0  0  0
  133.0690  135.5840  149.9510 C   0  0  0  0  0  3  0  0  0  0  0  0
  132.9030  136.1740  148.6980 C   0  0  0  0  0  3  0  0  0  0  0  0
  133.0430  135.4110  147.5340 C   0  0  0  0  0  0  0  0  0  0  0  0
  133.3460  134.0460  147.6140 C   0  0  0  0  0  0  0  0  0  0  0  0
  133.5120  133.4680  148.8820 C   0  0  0  0  0  3  0  0  0  0  0  0
  132.8770  136.0400  146.3310 O   0  0  0  0  0  0  0  0  0  0  0  0
  132.0360  136.3710  146.0870 H   0  0  0  0  0  0  0  0  0  0  0  0
  133.5100  133.1510  146.5910 O   0  0  0  0  0  0  0  0  0  0  0  0
  134.5960  133.3490  145.6980 C   0  0  0  0  0  1  0  0  0  0  0  0
  1  2  1  0  0  0  0
  2  3  2  0  0  0  0
  4  2  1  0  0  0  0
  4  5  1  0  0  0  0
  5  6  1  0  0  0  0
  6  7  1  0  0  0  0
  8  7  1  0  0  0  0
  9  8  1  0  0  0  0
 10  9  1  0  0  0  0
 11 12  1  0  0  0  0
 12 10  1  0  0  0  0
 13  1  1  0  0  0  0
 14 13  1  0  0  0  0
 15 14  1  0  0  0  0
 16 15  2  0  0  0  0
 17 18  2  0  0  0  0
 17 16  1  0  0  0  0
 18 19  1  0  0  0  0
 19 14  2  0  0  0  0
 20 17  1  0  0  0  0
 21 20  1  0  0  0  0
 22 18  1  0  0  0  0
 23 22  1  0  0  0  0
M  END
>  <MODEL>
9

>  <REMARK>
 VINA RESULT:    -5.647      2.224      4.465
 INTER + INTRA:         -10.737
 INTER:                  -9.773
 INTRA:                  -0.963
 UNBOUND:                -0.963
  Name = CHEMBL562480
  15 active torsions:
  status: ('A' for Active; 'I' for Inactive)
    1  A    between atoms: C_1  and  C_2
    2  A    between atoms: C_2  and  C_3
    3  A    between atoms: C_3  and  C_4
    4  A    between atoms: C_4  and  C_5
    5  A    between atoms: C_5  and  C_6
    6  A    between atoms: C_6  and  C_7
    7  A    between atoms: C_7  and  C_8
    8  A    between atoms: C_8  and  C_9
    9  A    between atoms: C_9  and  C_10
   10  A    between atoms: C_10  and  O_12
   11  A    between atoms: O_12  and  C_13
   12  A    between atoms: C_13  and  C_14
   13  A    between atoms: C_17  and  O_18
   14  A    between atoms: C_19  and  O_20
   15  A    between atoms: O_20  and  C_21
                            x       y       z     vdW  Elec       q    Type
                         _______ _______ _______ _____ _____    ______ ____

>  <TORSDO>
F 13

>  <SCORE>
-5.647

>  <RMSD_LB>
2.224

>  <RMSD_UB>
4.465

$$$$
