CHEMBL4986524
 OpenBabel10162523543D

 26 27  0  0  0  0  0  0  0  0999 V2000
  142.8470  137.3280  151.5660 N   0  0  0  0  0  0  0  0  0  0  0  0
  143.9070  138.1770  151.7940 C   0  0  0  0  0  0  0  0  0  0  0  0
  143.9120  139.3570  151.4850 O   0  0  0  0  0  0  0  0  0  0  0  0
  142.9240  136.3920  151.8600 H   0  0  0  0  0  0  0  0  0  0  0  0
  141.6300  137.7470  150.9130 C   0  0  0  0  0  2  0  0  0  0  0  0
  138.2750  137.9000  153.6610 C   0  0  0  0  0  0  0  0  0  0  0  0
  138.1040  137.4920  152.3310 C   0  0  0  0  0  3  0  0  0  0  0  0
  139.1860  137.4490  151.4450 C   0  0  0  0  0  3  0  0  0  0  0  0
  140.4640  137.8160  151.8650 C   0  0  0  0  0  0  0  0  0  0  0  0
  140.6340  138.2480  153.1870 C   0  0  0  0  0  3  0  0  0  0  0  0
  139.5590  138.2710  154.0930 C   0  0  0  0  0  0  0  0  0  0  0  0
  136.8530  136.8700  155.2660 C   0  0  0  0  0  1  0  0  0  0  0  0
  137.2250  138.0320  154.5320 O   0  0  0  0  0  0  0  0  0  0  0  0
  139.9200  138.7120  155.3420 O   0  0  0  0  0  0  0  0  0  0  0  0
  140.6710  137.8070  156.1440 C   0  0  0  0  0  1  0  0  0  0  0  0
  145.0750  137.5110  152.5060 C   0  0  0  0  0  2  0  0  0  0  0  0
  145.6140  138.4040  153.6280 C   0  0  0  0  0  2  0  0  0  0  0  0
  146.3150  139.6330  153.2210 N   0  0  0  0  0  4  0  0  0  0  0  0
  147.7080  139.3870  152.8450 C   0  0  0  0  0  2  0  0  0  0  0  0
  148.3420  140.4420  151.9290 C   0  0  0  0  0  2  0  0  0  0  0  0
  147.4220  140.9160  150.8000 C   0  0  0  0  0  2  0  0  0  0  0  0
  146.7710  142.2760  151.0610 C   0  0  0  0  0  2  0  0  0  0  0  0
  145.7350  142.3270  152.1890 C   0  0  0  0  0  2  0  0  0  0  0  0
  146.3180  142.1330  153.5930 C   0  0  0  0  0  2  0  0  0  0  0  0
  146.1120  140.7270  154.1720 C   0  0  0  0  0  2  0  0  0  0  0  0
  145.8810  139.9630  152.3590 H   0  0  0  0  0  0  0  0  0  0  0  0
  1  2  1  0  0  0  0
  1  4  1  0  0  0  0
  2 16  1  0  0  0  0
  3  2  2  0  0  0  0
  5  1  1  0  0  0  0
  5  9  1  0  0  0  0
  6 11  1  0  0  0  0
  6 13  1  0  0  0  0
  7  6  2  0  0  0  0
  8  9  2  0  0  0  0
  8  7  1  0  0  0  0
  9 10  1  0  0  0  0
 10 11  2  0  0  0  0
 11 14  1  0  0  0  0
 13 12  1  0  0  0  0
 14 15  1  0  0  0  0
 16 17  1  0  0  0  0
 18 17  1  0  0  0  0
 18 25  1  0  0  0  0
 19 18  1  0  0  0  0
 20 19  1  0  0  0  0
 21 22  1  0  0  0  0
 21 20  1  0  0  0  0
 22 23  1  0  0  0  0
 23 24  1  0  0  0  0
 24 25  1  0  0  0  0
 26 18  1  0  0  0  0
M  END
>  <MODEL>
1

>  <REMARK>
 VINA RESULT:    -7.440      0.000      0.000
 INTER + INTRA:         -11.055
 INTER:                  -9.930
 INTRA:                  -1.125
 UNBOUND:                -0.570
  Name = CHEMBL4986524
  9 active torsions:
  status: ('A' for Active; 'I' for Inactive)
    1  A    between atoms: C_1  and  O_2
    2  A    between atoms: O_2  and  C_3
    3  A    between atoms: C_6  and  C_7
    4  A    between atoms: C_7  and  N_8
    5  A    between atoms: C_9  and  C_11
    6  A    between atoms: C_11  and  C_12
    7  A    between atoms: C_12  and  N_13
    8  A    between atoms: C_22  and  O_23
    9  A    between atoms: O_23  and  C_24
                            x       y       z     vdW  Elec       q    Type
                         _______ _______ _______ _____ _____    ______ ____

>  <TORSDO>
F 7

>  <SCORE>
-7.440

>  <RMSD_LB>
0.000

>  <RMSD_UB>
0.000

$$$$
CHEMBL4986524
 OpenBabel10162523543D

 26 27  0  0  0  0  0  0  0  0999 V2000
  137.6360  137.4800  149.4770 N   0  0  0  0  0  0  0  0  0  0  0  0
  136.8640  136.8610  148.5200 C   0  0  0  0  0  0  0  0  0  0  0  0
  137.0850  135.7430  148.0850 O   0  0  0  0  0  0  0  0  0  0  0  0
  137.3770  138.3800  149.7790 H   0  0  0  0  0  0  0  0  0  0  0  0
  138.8110  136.8710  150.0540 C   0  0  0  0  0  2  0  0  0  0  0  0
  139.6070  138.3500  154.0550 C   0  0  0  0  0  0  0  0  0  0  0  0
  140.6250  138.2760  153.0940 C   0  0  0  0  0  3  0  0  0  0  0  0
  140.3670  137.7930  151.8060 C   0  0  0  0  0  3  0  0  0  0  0  0
  139.0880  137.3700  151.4480 C   0  0  0  0  0  0  0  0  0  0  0  0
  138.0740  137.4200  152.4140 C   0  0  0  0  0  3  0  0  0  0  0  0
  138.3150  137.9260  153.7030 C   0  0  0  0  0  0  0  0  0  0  0  0
  140.2170  137.7200  156.2670 C   0  0  0  0  0  1  0  0  0  0  0  0
  139.8410  138.7410  155.3480 O   0  0  0  0  0  0  0  0  0  0  0  0
  137.2000  137.9060  154.5040 O   0  0  0  0  0  0  0  0  0  0  0  0
  136.7120  136.6240  154.8830 C   0  0  0  0  0  1  0  0  0  0  0  0
  135.6720  137.6930  148.0700 C   0  0  0  0  0  2  0  0  0  0  0  0
  134.5700  136.8020  147.4890 C   0  0  0  0  0  2  0  0  0  0  0  0
  133.8540  135.9280  148.4330 N   0  0  0  0  0  4  0  0  0  0  0  0
  133.1100  134.8620  147.7590 C   0  0  0  0  0  2  0  0  0  0  0  0
  132.7930  133.6310  148.6170 C   0  0  0  0  0  2  0  0  0  0  0  0
  133.9590  133.1740  149.4980 C   0  0  0  0  0  2  0  0  0  0  0  0
  133.8310  133.5930  150.9640 C   0  0  0  0  0  2  0  0  0  0  0  0
  133.9480  135.0930  151.2530 C   0  0  0  0  0  2  0  0  0  0  0  0
  132.7800  135.9330  150.7220 C   0  0  0  0  0  2  0  0  0  0  0  0
  133.0900  136.6900  149.4220 C   0  0  0  0  0  2  0  0  0  0  0  0
  134.5550  135.4310  148.9820 H   0  0  0  0  0  0  0  0  0  0  0  0
  1  4  1  0  0  0  0
  1  5  1  0  0  0  0
  2  1  1  0  0  0  0
  3  2  2  0  0  0  0
  5  9  1  0  0  0  0
  6 13  1  0  0  0  0
  7  6  2  0  0  0  0
  8  7  1  0  0  0  0
  9  8  2  0  0  0  0
  9 10  1  0  0  0  0
 10 11  2  0  0  0  0
 11  6  1  0  0  0  0
 11 14  1  0  0  0  0
 13 12  1  0  0  0  0
 14 15  1  0  0  0  0
 16  2  1  0  0  0  0
 17 16  1  0  0  0  0
 17 18  1  0  0  0  0
 18 26  1  0  0  0  0
 18 25  1  0  0  0  0
 19 18  1  0  0  0  0
 19 20  1  0  0  0  0
 20 21  1  0  0  0  0
 21 22  1  0  0  0  0
 22 23  1  0  0  0  0
 24 23  1  0  0  0  0
 25 24  1  0  0  0  0
M  END
>  <MODEL>
2

>  <REMARK>
 VINA RESULT:    -7.258      4.917      9.965
 INTER + INTRA:         -10.798
 INTER:                  -9.763
 INTRA:                  -1.035
 UNBOUND:                -0.570
  Name = CHEMBL4986524
  9 active torsions:
  status: ('A' for Active; 'I' for Inactive)
    1  A    between atoms: C_1  and  O_2
    2  A    between atoms: O_2  and  C_3
    3  A    between atoms: C_6  and  C_7
    4  A    between atoms: C_7  and  N_8
    5  A    between atoms: C_9  and  C_11
    6  A    between atoms: C_11  and  C_12
    7  A    between atoms: C_12  and  N_13
    8  A    between atoms: C_22  and  O_23
    9  A    between atoms: O_23  and  C_24
                            x       y       z     vdW  Elec       q    Type
                         _______ _______ _______ _____ _____    ______ ____

>  <TORSDO>
F 7

>  <SCORE>
-7.258

>  <RMSD_LB>
4.917

>  <RMSD_UB>
9.965

$$$$
CHEMBL4986524
 OpenBabel10162523543D

 26 27  0  0  0  0  0  0  0  0999 V2000
  146.1160  142.3380  152.2220 N   0  0  0  0  0  0  0  0  0  0  0  0
  147.3730  141.9060  152.5830 C   0  0  0  0  0  0  0  0  0  0  0  0
  148.2410  141.5940  151.7840 O   0  0  0  0  0  0  0  0  0  0  0  0
  145.4810  142.5820  152.9340 H   0  0  0  0  0  0  0  0  0  0  0  0
  145.6870  142.4490  150.8490 C   0  0  0  0  0  2  0  0  0  0  0  0
  144.0720  138.7370  149.2860 C   0  0  0  0  0  0  0  0  0  0  0  0
  143.4960  139.3670  150.3980 C   0  0  0  0  0  3  0  0  0  0  0  0
  144.0210  140.5610  150.9040 C   0  0  0  0  0  3  0  0  0  0  0  0
  145.1380  141.1530  150.3140 C   0  0  0  0  0  0  0  0  0  0  0  0
  145.7310  140.5130  149.2170 C   0  0  0  0  0  3  0  0  0  0  0  0
  145.1960  139.3270  148.6840 C   0  0  0  0  0  0  0  0  0  0  0  0
  142.8290  136.7500  149.6960 C   0  0  0  0  0  1  0  0  0  0  0  0
  143.6330  137.5280  148.8150 O   0  0  0  0  0  0  0  0  0  0  0  0
  145.9050  138.8560  147.6070 O   0  0  0  0  0  0  0  0  0  0  0  0
  146.9860  137.9750  147.8920 C   0  0  0  0  0  1  0  0  0  0  0  0
  147.5970  141.8820  154.0870 C   0  0  0  0  0  2  0  0  0  0  0  0
  148.4340  140.6660  154.4970 C   0  0  0  0  0  2  0  0  0  0  0  0
  147.9420  139.3450  154.0710 N   0  0  0  0  0  4  0  0  0  0  0  0
  147.1080  138.7010  155.0880 C   0  0  0  0  0  2  0  0  0  0  0  0
  146.1430  137.6280  154.5700 C   0  0  0  0  0  2  0  0  0  0  0  0
  145.4280  138.0130  153.2710 C   0  0  0  0  0  2  0  0  0  0  0  0
  146.0180  137.3560  152.0210 C   0  0  0  0  0  2  0  0  0  0  0  0
  147.4210  137.8150  151.6120 C   0  0  0  0  0  2  0  0  0  0  0  0
  148.5330  137.3910  152.5800 C   0  0  0  0  0  2  0  0  0  0  0  0
  149.0080  138.5080  153.5190 C   0  0  0  0  0  2  0  0  0  0  0  0
  147.3050  139.4930  153.2880 H   0  0  0  0  0  0  0  0  0  0  0  0
  1  2  1  0  0  0  0
  1  4  1  0  0  0  0
  2 16  1  0  0  0  0
  3  2  2  0  0  0  0
  5  1  1  0  0  0  0
  6  7  1  0  0  0  0
  7  8  2  0  0  0  0
  9  5  1  0  0  0  0
  9  8  1  0  0  0  0
 10  9  2  0  0  0  0
 11 10  1  0  0  0  0
 11  6  2  0  0  0  0
 13  6  1  0  0  0  0
 13 12  1  0  0  0  0
 14 15  1  0  0  0  0
 14 11  1  0  0  0  0
 16 17  1  0  0  0  0
 18 17  1  0  0  0  0
 18 19  1  0  0  0  0
 20 19  1  0  0  0  0
 21 20  1  0  0  0  0
 22 21  1  0  0  0  0
 23 22  1  0  0  0  0
 23 24  1  0  0  0  0
 24 25  1  0  0  0  0
 25 18  1  0  0  0  0
 26 18  1  0  0  0  0
M  END
>  <MODEL>
3

>  <REMARK>
 VINA RESULT:    -7.098      4.335      6.184
 INTER + INTRA:         -10.572
 INTER:                  -8.534
 INTRA:                  -2.038
 UNBOUND:                -0.570
  Name = CHEMBL4986524
  9 active torsions:
  status: ('A' for Active; 'I' for Inactive)
    1  A    between atoms: C_1  and  O_2
    2  A    between atoms: O_2  and  C_3
    3  A    between atoms: C_6  and  C_7
    4  A    between atoms: C_7  and  N_8
    5  A    between atoms: C_9  and  C_11
    6  A    between atoms: C_11  and  C_12
    7  A    between atoms: C_12  and  N_13
    8  A    between atoms: C_22  and  O_23
    9  A    between atoms: O_23  and  C_24
                            x       y       z     vdW  Elec       q    Type
                         _______ _______ _______ _____ _____    ______ ____

>  <TORSDO>
F 7

>  <SCORE>
-7.098

>  <RMSD_LB>
4.335

>  <RMSD_UB>
6.184

$$$$
CHEMBL4986524
 OpenBabel10162523543D

 26 27  0  0  0  0  0  0  0  0999 V2000
  143.9750  137.4210  152.1860 N   0  0  0  0  0  0  0  0  0  0  0  0
  145.3150  137.7210  152.2910 C   0  0  0  0  0  0  0  0  0  0  0  0
  146.0700  137.8100  151.3370 O   0  0  0  0  0  0  0  0  0  0  0  0
  143.4370  137.3830  153.0090 H   0  0  0  0  0  0  0  0  0  0  0  0
  143.3250  137.1580  150.9240 C   0  0  0  0  0  2  0  0  0  0  0  0
  139.0020  137.3870  151.2130 C   0  0  0  0  0  0  0  0  0  0  0  0
  139.6280  136.9730  150.0290 C   0  0  0  0  0  3  0  0  0  0  0  0
  141.0220  136.9050  149.9360 C   0  0  0  0  0  3  0  0  0  0  0  0
  141.8260  137.2530  151.0220 C   0  0  0  0  0  0  0  0  0  0  0  0
  141.2030  137.6910  152.1990 C   0  0  0  0  0  3  0  0  0  0  0  0
  139.8020  137.7390  152.3120 C   0  0  0  0  0  0  0  0  0  0  0  0
  136.8550  136.9490  150.2860 C   0  0  0  0  0  1  0  0  0  0  0  0
  137.6440  137.5420  151.3130 O   0  0  0  0  0  0  0  0  0  0  0  0
  139.3780  138.1820  153.5410 O   0  0  0  0  0  0  0  0  0  0  0  0
  140.3380  138.8690  154.3350 C   0  0  0  0  0  1  0  0  0  0  0  0
  145.7700  137.9690  153.7220 C   0  0  0  0  0  2  0  0  0  0  0  0
  147.1590  138.6160  153.7510 C   0  0  0  0  0  2  0  0  0  0  0  0
  147.2640  139.9880  153.2260 N   0  0  0  0  0  4  0  0  0  0  0  0
  148.6260  140.3250  152.8040 C   0  0  0  0  0  2  0  0  0  0  0  0
  148.7390  141.4690  151.7880 C   0  0  0  0  0  2  0  0  0  0  0  0
  147.6930  141.4110  150.6720 C   0  0  0  0  0  2  0  0  0  0  0  0
  146.5270  142.3840  150.8640 C   0  0  0  0  0  2  0  0  0  0  0  0
  145.5810  142.0850  152.0310 C   0  0  0  0  0  2  0  0  0  0  0  0
  146.2060  142.2750  153.4180 C   0  0  0  0  0  2  0  0  0  0  0  0
  146.6250  140.9680  154.1050 C   0  0  0  0  0  2  0  0  0  0  0  0
  146.7220  140.0290  152.3630 H   0  0  0  0  0  0  0  0  0  0  0  0
  1  2  1  0  0  0  0
  1  4  1  0  0  0  0
  2 16  1  0  0  0  0
  3  2  2  0  0  0  0
  5  9  1  0  0  0  0
  5  1  1  0  0  0  0
  6 13  1  0  0  0  0
  6 11  1  0  0  0  0
  7  6  2  0  0  0  0
  8  7  1  0  0  0  0
  8  9  2  0  0  0  0
  9 10  1  0  0  0  0
 10 11  2  0  0  0  0
 11 14  1  0  0  0  0
 12 13  1  0  0  0  0
 14 15  1  0  0  0  0
 16 17  1  0  0  0  0
 18 17  1  0  0  0  0
 18 25  1  0  0  0  0
 19 18  1  0  0  0  0
 20 19  1  0  0  0  0
 21 22  1  0  0  0  0
 21 20  1  0  0  0  0
 22 23  1  0  0  0  0
 23 24  1  0  0  0  0
 24 25  1  0  0  0  0
 26 18  1  0  0  0  0
M  END
>  <MODEL>
4

>  <REMARK>
 VINA RESULT:    -7.081      1.537      2.005
 INTER + INTRA:         -10.549
 INTER:                  -9.569
 INTRA:                  -0.980
 UNBOUND:                -0.570
  Name = CHEMBL4986524
  9 active torsions:
  status: ('A' for Active; 'I' for Inactive)
    1  A    between atoms: C_1  and  O_2
    2  A    between atoms: O_2  and  C_3
    3  A    between atoms: C_6  and  C_7
    4  A    between atoms: C_7  and  N_8
    5  A    between atoms: C_9  and  C_11
    6  A    between atoms: C_11  and  C_12
    7  A    between atoms: C_12  and  N_13
    8  A    between atoms: C_22  and  O_23
    9  A    between atoms: O_23  and  C_24
                            x       y       z     vdW  Elec       q    Type
                         _______ _______ _______ _____ _____    ______ ____

>  <TORSDO>
F 7

>  <SCORE>
-7.081

>  <RMSD_LB>
1.537

>  <RMSD_UB>
2.005

$$$$
CHEMBL4986524
 OpenBabel10162523543D

 26 27  0  0  0  0  0  0  0  0999 V2000
  143.6660  137.7020  152.1000 N   0  0  0  0  0  0  0  0  0  0  0  0
  144.1490  138.7850  151.4010 C   0  0  0  0  0  0  0  0  0  0  0  0
  143.7970  139.9360  151.5990 O   0  0  0  0  0  0  0  0  0  0  0  0
  144.0150  136.8080  151.8830 H   0  0  0  0  0  0  0  0  0  0  0  0
  142.6680  137.8170  153.1370 C   0  0  0  0  0  2  0  0  0  0  0  0
  138.6280  137.5240  151.5800 C   0  0  0  0  0  0  0  0  0  0  0  0
  139.7390  137.2490  150.7700 C   0  0  0  0  0  3  0  0  0  0  0  0
  141.0410  137.3500  151.2720 C   0  0  0  0  0  3  0  0  0  0  0  0
  141.2660  137.7310  152.5950 C   0  0  0  0  0  0  0  0  0  0  0  0
  140.1590  138.0300  153.4000 C   0  0  0  0  0  3  0  0  0  0  0  0
  138.8450  137.9080  152.9140 C   0  0  0  0  0  0  0  0  0  0  0  0
  136.7610  136.2370  150.8620 C   0  0  0  0  0  1  0  0  0  0  0  0
  137.3450  137.5130  151.0990 O   0  0  0  0  0  0  0  0  0  0  0  0
  137.8940  138.2320  153.8500 O   0  0  0  0  0  0  0  0  0  0  0  0
  137.3910  137.1640  154.6430 C   0  0  0  0  0  1  0  0  0  0  0  0
  145.2010  138.4170  150.3650 C   0  0  0  0  0  2  0  0  0  0  0  0
  146.5940  138.3530  150.9990 C   0  0  0  0  0  2  0  0  0  0  0  0
  147.0790  139.5730  151.6660 N   0  0  0  0  0  4  0  0  0  0  0  0
  147.2590  140.6890  150.7340 C   0  0  0  0  0  2  0  0  0  0  0  0
  147.2330  142.0870  151.3640 C   0  0  0  0  0  2  0  0  0  0  0  0
  146.1370  142.2710  152.4180 C   0  0  0  0  0  2  0  0  0  0  0  0
  146.6440  142.1910  153.8600 C   0  0  0  0  0  2  0  0  0  0  0  0
  147.1360  140.8190  154.3310 C   0  0  0  0  0  2  0  0  0  0  0  0
  148.4300  140.3450  153.6580 C   0  0  0  0  0  2  0  0  0  0  0  0
  148.2170  139.3080  152.5460 C   0  0  0  0  0  2  0  0  0  0  0  0
  146.3410  139.8930  152.2940 H   0  0  0  0  0  0  0  0  0  0  0  0
  1  5  1  0  0  0  0
  2  3  2  0  0  0  0
  2  1  1  0  0  0  0
  4  1  1  0  0  0  0
  6 11  1  0  0  0  0
  7  8  1  0  0  0  0
  7  6  2  0  0  0  0
  8  9  2  0  0  0  0
  9  5  1  0  0  0  0
  9 10  1  0  0  0  0
 11 10  2  0  0  0  0
 11 14  1  0  0  0  0
 12 13  1  0  0  0  0
 13  6  1  0  0  0  0
 14 15  1  0  0  0  0
 16 17  1  0  0  0  0
 16  2  1  0  0  0  0
 17 18  1  0  0  0  0
 18 26  1  0  0  0  0
 18 25  1  0  0  0  0
 19 20  1  0  0  0  0
 19 18  1  0  0  0  0
 20 21  1  0  0  0  0
 21 22  1  0  0  0  0
 22 23  1  0  0  0  0
 24 23  1  0  0  0  0
 25 24  1  0  0  0  0
M  END
>  <MODEL>
5

>  <REMARK>
 VINA RESULT:    -7.063      1.373      2.442
 INTER + INTRA:         -10.524
 INTER:                  -9.597
 INTRA:                  -0.927
 UNBOUND:                -0.570
  Name = CHEMBL4986524
  9 active torsions:
  status: ('A' for Active; 'I' for Inactive)
    1  A    between atoms: C_1  and  O_2
    2  A    between atoms: O_2  and  C_3
    3  A    between atoms: C_6  and  C_7
    4  A    between atoms: C_7  and  N_8
    5  A    between atoms: C_9  and  C_11
    6  A    between atoms: C_11  and  C_12
    7  A    between atoms: C_12  and  N_13
    8  A    between atoms: C_22  and  O_23
    9  A    between atoms: O_23  and  C_24
                            x       y       z     vdW  Elec       q    Type
                         _______ _______ _______ _____ _____    ______ ____

>  <TORSDO>
F 7

>  <SCORE>
-7.063

>  <RMSD_LB>
1.373

>  <RMSD_UB>
2.442

$$$$
CHEMBL4986524
 OpenBabel10162523543D

 26 27  0  0  0  0  0  0  0  0999 V2000
  143.8940  137.6210  152.5350 N   0  0  0  0  0  0  0  0  0  0  0  0
  145.2330  137.6130  152.8610 C   0  0  0  0  0  0  0  0  0  0  0  0
  146.1030  137.1340  152.1530 O   0  0  0  0  0  0  0  0  0  0  0  0
  143.2610  138.0410  153.1610 H   0  0  0  0  0  0  0  0  0  0  0  0
  143.3780  137.0400  151.3190 C   0  0  0  0  0  2  0  0  0  0  0  0
  139.0920  137.5970  150.9340 C   0  0  0  0  0  0  0  0  0  0  0  0
  139.7460  137.8270  152.1530 C   0  0  0  0  0  3  0  0  0  0  0  0
  141.1270  137.6410  152.2760 C   0  0  0  0  0  3  0  0  0  0  0  0
  141.8880  137.2180  151.1870 C   0  0  0  0  0  0  0  0  0  0  0  0
  141.2340  136.9650  149.9740 C   0  0  0  0  0  3  0  0  0  0  0  0
  139.8510  137.1720  149.8310 C   0  0  0  0  0  0  0  0  0  0  0  0
  136.9700  136.5480  151.1750 C   0  0  0  0  0  1  0  0  0  0  0  0
  137.7310  137.6910  150.7990 O   0  0  0  0  0  0  0  0  0  0  0  0
  139.3920  136.8810  148.5700 O   0  0  0  0  0  0  0  0  0  0  0  0
  139.7890  137.7660  147.5290 C   0  0  0  0  0  1  0  0  0  0  0  0
  145.5380  138.2940  154.1870 C   0  0  0  0  0  2  0  0  0  0  0  0
  146.9850  138.7960  154.2240 C   0  0  0  0  0  2  0  0  0  0  0  0
  147.2300  140.1570  153.7170 N   0  0  0  0  0  4  0  0  0  0  0  0
  148.5110  140.7030  154.1710 C   0  0  0  0  0  2  0  0  0  0  0  0
  149.0920  141.8300  153.3080 C   0  0  0  0  0  2  0  0  0  0  0  0
  148.9720  141.5810  151.8020 C   0  0  0  0  0  2  0  0  0  0  0  0
  147.8320  142.3540  151.1350 C   0  0  0  0  0  2  0  0  0  0  0  0
  146.4110  141.9280  151.5150 C   0  0  0  0  0  2  0  0  0  0  0  0
  146.0200  142.2440  152.9640 C   0  0  0  0  0  2  0  0  0  0  0  0
  146.0760  141.0360  153.9080 C   0  0  0  0  0  2  0  0  0  0  0  0
  147.3350  140.0920  152.7040 H   0  0  0  0  0  0  0  0  0  0  0  0
  1  2  1  0  0  0  0
  1  4  1  0  0  0  0
  2 16  1  0  0  0  0
  3  2  2  0  0  0  0
  5  1  1  0  0  0  0
  6  7  1  0  0  0  0
  7  8  2  0  0  0  0
  9  5  1  0  0  0  0
  9  8  1  0  0  0  0
 10  9  2  0  0  0  0
 11 10  1  0  0  0  0
 11  6  2  0  0  0  0
 13  6  1  0  0  0  0
 13 12  1  0  0  0  0
 14 11  1  0  0  0  0
 15 14  1  0  0  0  0
 16 17  1  0  0  0  0
 18 25  1  0  0  0  0
 18 19  1  0  0  0  0
 18 17  1  0  0  0  0
 20 19  1  0  0  0  0
 21 20  1  0  0  0  0
 22 23  1  0  0  0  0
 22 21  1  0  0  0  0
 23 24  1  0  0  0  0
 24 25  1  0  0  0  0
 26 18  1  0  0  0  0
M  END
>  <MODEL>
6

>  <REMARK>
 VINA RESULT:    -7.056      2.155      3.213
 INTER + INTRA:         -10.514
 INTER:                  -9.836
 INTRA:                  -0.677
 UNBOUND:                -0.570
  Name = CHEMBL4986524
  9 active torsions:
  status: ('A' for Active; 'I' for Inactive)
    1  A    between atoms: C_1  and  O_2
    2  A    between atoms: O_2  and  C_3
    3  A    between atoms: C_6  and  C_7
    4  A    between atoms: C_7  and  N_8
    5  A    between atoms: C_9  and  C_11
    6  A    between atoms: C_11  and  C_12
    7  A    between atoms: C_12  and  N_13
    8  A    between atoms: C_22  and  O_23
    9  A    between atoms: O_23  and  C_24
                            x       y       z     vdW  Elec       q    Type
                         _______ _______ _______ _____ _____    ______ ____

>  <TORSDO>
F 7

>  <SCORE>
-7.056

>  <RMSD_LB>
2.155

>  <RMSD_UB>
3.213

$$$$
CHEMBL4986524
 OpenBabel10162523543D

 26 27  0  0  0  0  0  0  0  0999 V2000
  140.3970  138.6710  151.1050 N   0  0  0  0  0  0  0  0  0  0  0  0
  140.7550  139.8040  150.4090 C   0  0  0  0  0  0  0  0  0  0  0  0
  139.9640  140.6610  150.0500 O   0  0  0  0  0  0  0  0  0  0  0  0
  141.1040  138.0370  151.3660 H   0  0  0  0  0  0  0  0  0  0  0  0
  139.0330  138.3680  151.4670 C   0  0  0  0  0  2  0  0  0  0  0  0
  138.6060  137.5160  155.7010 C   0  0  0  0  0  0  0  0  0  0  0  0
  137.6090  137.1540  154.7840 C   0  0  0  0  0  3  0  0  0  0  0  0
  137.7460  137.4350  153.4210 C   0  0  0  0  0  3  0  0  0  0  0  0
  138.8810  138.0870  152.9390 C   0  0  0  0  0  0  0  0  0  0  0  0
  139.8680  138.4720  153.8560 C   0  0  0  0  0  3  0  0  0  0  0  0
  139.7530  138.1720  155.2250 C   0  0  0  0  0  0  0  0  0  0  0  0
  137.2260  137.7150  157.6280 C   0  0  0  0  0  1  0  0  0  0  0  0
  138.4690  137.3290  157.0510 O   0  0  0  0  0  0  0  0  0  0  0  0
  140.8220  138.6180  155.9630 O   0  0  0  0  0  0  0  0  0  0  0  0
  141.9130  139.1680  155.2340 C   0  0  0  0  0  1  0  0  0  0  0  0
  142.2500  139.9110  150.1520 C   0  0  0  0  0  2  0  0  0  0  0  0
  143.0470  139.6210  151.4290 C   0  0  0  0  0  2  0  0  0  0  0  0
  144.4300  140.1250  151.4780 N   0  0  0  0  0  4  0  0  0  0  0  0
  144.7000  141.1300  150.4470 C   0  0  0  0  0  2  0  0  0  0  0  0
  145.8750  142.0730  150.7340 C   0  0  0  0  0  2  0  0  0  0  0  0
  145.9280  142.5730  152.1810 C   0  0  0  0  0  2  0  0  0  0  0  0
  146.9620  141.8520  153.0490 C   0  0  0  0  0  2  0  0  0  0  0  0
  146.6750  140.3800  153.3630 C   0  0  0  0  0  2  0  0  0  0  0  0
  146.7690  139.4430  152.1530 C   0  0  0  0  0  2  0  0  0  0  0  0
  145.4110  139.0410  151.5610 C   0  0  0  0  0  2  0  0  0  0  0  0
  144.5400  140.6340  152.3540 H   0  0  0  0  0  0  0  0  0  0  0  0
  1  4  1  0  0  0  0
  1  5  1  0  0  0  0
  2  1  1  0  0  0  0
  3  2  2  0  0  0  0
  5  9  1  0  0  0  0
  6 13  1  0  0  0  0
  7  6  2  0  0  0  0
  8  7  1  0  0  0  0
  9  8  2  0  0  0  0
  9 10  1  0  0  0  0
 10 11  2  0  0  0  0
 11  6  1  0  0  0  0
 11 14  1  0  0  0  0
 13 12  1  0  0  0  0
 15 14  1  0  0  0  0
 16  2  1  0  0  0  0
 16 17  1  0  0  0  0
 17 18  1  0  0  0  0
 18 25  1  0  0  0  0
 18 26  1  0  0  0  0
 19 20  1  0  0  0  0
 19 18  1  0  0  0  0
 20 21  1  0  0  0  0
 21 22  1  0  0  0  0
 22 23  1  0  0  0  0
 24 23  1  0  0  0  0
 25 24  1  0  0  0  0
M  END
>  <MODEL>
7

>  <REMARK>
 VINA RESULT:    -6.973      1.917      2.860
 INTER + INTRA:         -10.397
 INTER:                  -9.605
 INTRA:                  -0.793
 UNBOUND:                -0.570
  Name = CHEMBL4986524
  9 active torsions:
  status: ('A' for Active; 'I' for Inactive)
    1  A    between atoms: C_1  and  O_2
    2  A    between atoms: O_2  and  C_3
    3  A    between atoms: C_6  and  C_7
    4  A    between atoms: C_7  and  N_8
    5  A    between atoms: C_9  and  C_11
    6  A    between atoms: C_11  and  C_12
    7  A    between atoms: C_12  and  N_13
    8  A    between atoms: C_22  and  O_23
    9  A    between atoms: O_23  and  C_24
                            x       y       z     vdW  Elec       q    Type
                         _______ _______ _______ _____ _____    ______ ____

>  <TORSDO>
F 7

>  <SCORE>
-6.973

>  <RMSD_LB>
1.917

>  <RMSD_UB>
2.860

$$$$
CHEMBL4986524
 OpenBabel10162523543D

 26 27  0  0  0  0  0  0  0  0999 V2000
  145.4570  136.9090  151.0040 N   0  0  0  0  0  0  0  0  0  0  0  0
  146.5920  137.6890  150.9630 C   0  0  0  0  0  0  0  0  0  0  0  0
  146.7040  138.6940  150.2810 O   0  0  0  0  0  0  0  0  0  0  0  0
  145.4500  136.1210  151.5930 H   0  0  0  0  0  0  0  0  0  0  0  0
  144.2790  137.1960  150.2200 C   0  0  0  0  0  2  0  0  0  0  0  0
  140.7590  137.7980  152.6850 C   0  0  0  0  0  0  0  0  0  0  0  0
  142.0460  137.8350  153.2390 C   0  0  0  0  0  3  0  0  0  0  0  0
  143.1800  137.6340  152.4440 C   0  0  0  0  0  3  0  0  0  0  0  0
  143.0550  137.3890  151.0760 C   0  0  0  0  0  0  0  0  0  0  0  0
  141.7690  137.3280  150.5240 C   0  0  0  0  0  3  0  0  0  0  0  0
  140.6240  137.5530  151.3090 C   0  0  0  0  0  0  0  0  0  0  0  0
  139.6190  138.9310  154.4390 C   0  0  0  0  0  1  0  0  0  0  0  0
  139.6260  137.9100  153.4480 O   0  0  0  0  0  0  0  0  0  0  0  0
  139.4560  137.4620  150.5920 O   0  0  0  0  0  0  0  0  0  0  0  0
  139.4380  136.5270  149.5200 C   0  0  0  0  0  1  0  0  0  0  0  0
  147.6990  137.1950  151.8830 C   0  0  0  0  0  2  0  0  0  0  0  0
  147.6090  137.8660  153.2570 C   0  0  0  0  0  2  0  0  0  0  0  0
  147.4150  139.3260  153.2740 N   0  0  0  0  0  4  0  0  0  0  0  0
  148.6540  140.0540  153.5590 C   0  0  0  0  0  2  0  0  0  0  0  0
  148.6880  141.5120  153.0840 C   0  0  0  0  0  2  0  0  0  0  0  0
  148.1010  141.7210  151.6850 C   0  0  0  0  0  2  0  0  0  0  0  0
  146.6810  142.2930  151.6880 C   0  0  0  0  0  2  0  0  0  0  0  0
  145.5810  141.3720  152.2240 C   0  0  0  0  0  2  0  0  0  0  0  0
  145.6660  141.0920  153.7290 C   0  0  0  0  0  2  0  0  0  0  0  0
  146.2610  139.7220  154.0810 C   0  0  0  0  0  2  0  0  0  0  0  0
  147.1730  139.6140  152.3260 H   0  0  0  0  0  0  0  0  0  0  0  0
  1  4  1  0  0  0  0
  2  1  1  0  0  0  0
  2 16  1  0  0  0  0
  3  2  2  0  0  0  0
  5  1  1  0  0  0  0
  5  9  1  0  0  0  0
  6  7  1  0  0  0  0
  6 13  1  0  0  0  0
  8  7  2  0  0  0  0
  9  8  1  0  0  0  0
 10  9  2  0  0  0  0
 10 11  1  0  0  0  0
 11  6  2  0  0  0  0
 13 12  1  0  0  0  0
 14 11  1  0  0  0  0
 15 14  1  0  0  0  0
 16 17  1  0  0  0  0
 17 18  1  0  0  0  0
 18 19  1  0  0  0  0
 18 25  1  0  0  0  0
 20 19  1  0  0  0  0
 21 22  1  0  0  0  0
 21 20  1  0  0  0  0
 22 23  1  0  0  0  0
 23 24  1  0  0  0  0
 24 25  1  0  0  0  0
 26 18  1  0  0  0  0
M  END
>  <MODEL>
8

>  <REMARK>
 VINA RESULT:    -6.930      1.834      2.986
 INTER + INTRA:         -10.336
 INTER:                  -8.963
 INTRA:                  -1.373
 UNBOUND:                -0.570
  Name = CHEMBL4986524
  9 active torsions:
  status: ('A' for Active; 'I' for Inactive)
    1  A    between atoms: C_1  and  O_2
    2  A    between atoms: O_2  and  C_3
    3  A    between atoms: C_6  and  C_7
    4  A    between atoms: C_7  and  N_8
    5  A    between atoms: C_9  and  C_11
    6  A    between atoms: C_11  and  C_12
    7  A    between atoms: C_12  and  N_13
    8  A    between atoms: C_22  and  O_23
    9  A    between atoms: O_23  and  C_24
                            x       y       z     vdW  Elec       q    Type
                         _______ _______ _______ _____ _____    ______ ____

>  <TORSDO>
F 7

>  <SCORE>
-6.930

>  <RMSD_LB>
1.834

>  <RMSD_UB>
2.986

$$$$
CHEMBL4986524
 OpenBabel10162523543D

 26 27  0  0  0  0  0  0  0  0999 V2000
  139.9810  138.2850  154.0460 N   0  0  0  0  0  0  0  0  0  0  0  0
  141.1290  138.5110  154.7730 C   0  0  0  0  0  0  0  0  0  0  0  0
  141.1530  138.6370  155.9860 O   0  0  0  0  0  0  0  0  0  0  0  0
  140.0550  138.1830  153.0710 H   0  0  0  0  0  0  0  0  0  0  0  0
  138.6730  138.1930  154.6510 C   0  0  0  0  0  2  0  0  0  0  0  0
  135.8790  135.8840  152.2660 C   0  0  0  0  0  0  0  0  0  0  0  0
  135.8560  135.8260  153.6660 C   0  0  0  0  0  3  0  0  0  0  0  0
  136.7620  136.5670  154.4330 C   0  0  0  0  0  3  0  0  0  0  0  0
  137.7150  137.3810  153.8210 C   0  0  0  0  0  0  0  0  0  0  0  0
  137.7550  137.4220  152.4200 C   0  0  0  0  0  3  0  0  0  0  0  0
  136.8340  136.7020  151.6400 C   0  0  0  0  0  0  0  0  0  0  0  0
  133.7970  135.6660  151.1350 C   0  0  0  0  0  1  0  0  0  0  0  0
  135.0610  135.1110  151.4830 O   0  0  0  0  0  0  0  0  0  0  0  0
  137.0240  136.8750  150.2910 O   0  0  0  0  0  0  0  0  0  0  0  0
  138.2390  136.3710  149.7490 C   0  0  0  0  0  1  0  0  0  0  0  0
  142.3870  138.5580  153.9190 C   0  0  0  0  0  2  0  0  0  0  0  0
  143.4300  139.4970  154.5330 C   0  0  0  0  0  2  0  0  0  0  0  0
  144.5250  139.9410  153.6530 N   0  0  0  0  0  4  0  0  0  0  0  0
  144.4960  139.2840  152.3450 C   0  0  0  0  0  2  0  0  0  0  0  0
  145.2170  140.0290  151.2140 C   0  0  0  0  0  2  0  0  0  0  0  0
  144.9600  141.5390  151.2070 C   0  0  0  0  0  2  0  0  0  0  0  0
  146.1080  142.3660  151.7900 C   0  0  0  0  0  2  0  0  0  0  0  0
  146.3520  142.2190  153.2960 C   0  0  0  0  0  2  0  0  0  0  0  0
  146.8840  140.8450  153.7200 C   0  0  0  0  0  2  0  0  0  0  0  0
  145.8220  139.9200  154.3310 C   0  0  0  0  0  2  0  0  0  0  0  0
  144.3660  140.9250  153.4390 H   0  0  0  0  0  0  0  0  0  0  0  0
  1  5  1  0  0  0  0
  1  2  1  0  0  0  0
  2  3  2  0  0  0  0
  4  1  1  0  0  0  0
  6  7  1  0  0  0  0
  7  8  2  0  0  0  0
  9  8  1  0  0  0  0
  9  5  1  0  0  0  0
 10  9  2  0  0  0  0
 11  6  2  0  0  0  0
 11 10  1  0  0  0  0
 12 13  1  0  0  0  0
 13  6  1  0  0  0  0
 14 11  1  0  0  0  0
 15 14  1  0  0  0  0
 16 17  1  0  0  0  0
 16  2  1  0  0  0  0
 18 25  1  0  0  0  0
 18 17  1  0  0  0  0
 19 18  1  0  0  0  0
 20 19  1  0  0  0  0
 21 20  1  0  0  0  0
 21 22  1  0  0  0  0
 22 23  1  0  0  0  0
 23 24  1  0  0  0  0
 24 25  1  0  0  0  0
 26 18  1  0  0  0  0
M  END
>  <MODEL>
9

>  <REMARK>
 VINA RESULT:    -6.829      2.354      3.805
 INTER + INTRA:         -10.193
 INTER:                  -9.623
 INTRA:                  -0.570
 UNBOUND:                -0.570
  Name = CHEMBL4986524
  9 active torsions:
  status: ('A' for Active; 'I' for Inactive)
    1  A    between atoms: C_1  and  O_2
    2  A    between atoms: O_2  and  C_3
    3  A    between atoms: C_6  and  C_7
    4  A    between atoms: C_7  and  N_8
    5  A    between atoms: C_9  and  C_11
    6  A    between atoms: C_11  and  C_12
    7  A    between atoms: C_12  and  N_13
    8  A    between atoms: C_22  and  O_23
    9  A    between atoms: O_23  and  C_24
                            x       y       z     vdW  Elec       q    Type
                         _______ _______ _______ _____ _____    ______ ____

>  <TORSDO>
F 7

>  <SCORE>
-6.829

>  <RMSD_LB>
2.354

>  <RMSD_UB>
3.805

$$$$
