CHEMBL1086760
 OpenBabel10172500033D

 28 29  0  0  0  0  0  0  0  0999 V2000
  142.9510  139.6110  149.1590 C   0  0  0  0  0  2  0  0  0  0  0  0
  142.6810  138.1170  149.1890 C   0  0  0  0  0  0  0  0  0  0  0  0
  142.9790  137.3790  148.2500 O   0  0  0  0  0  0  0  0  0  0  0  0
  142.0000  137.5690  150.4270 C   0  0  0  0  0  2  0  0  0  0  0  0
  143.0290  137.0660  151.4320 C   0  0  0  0  0  2  0  0  0  0  0  0
  143.1160  137.9460  152.6520 C   0  0  0  0  0  0  0  0  0  0  0  0
  144.3220  138.5640  152.9910 C   0  0  0  0  0  3  0  0  0  0  0  0
  144.4010  139.3680  154.1300 C   0  0  0  0  0  3  0  0  0  0  0  0
  143.2770  139.5660  154.9380 C   0  0  0  0  0  0  0  0  0  0  0  0
  142.0570  138.9650  154.6100 C   0  0  0  0  0  0  0  0  0  0  0  0
  141.9920  138.1600  153.4610 C   0  0  0  0  0  3  0  0  0  0  0  0
  143.4110  140.3590  156.0440 O   0  0  0  0  0  0  0  0  0  0  0  0
  144.0210  140.1260  156.7160 H   0  0  0  0  0  0  0  0  0  0  0  0
  140.8620  139.0420  155.2740 O   0  0  0  0  0  0  0  0  0  0  0  0
  139.6660  138.9370  154.5160 C   0  0  0  0  0  1  0  0  0  0  0  0
  144.3590  139.9390  148.6800 C   0  0  0  0  0  2  0  0  0  0  0  0
  145.4060  139.2630  149.5670 C   0  0  0  0  0  2  0  0  0  0  0  0
  146.6820  140.1000  149.6460 C   0  0  0  0  0  2  0  0  0  0  0  0
  147.9540  140.3390  153.2400 C   0  0  0  0  0  0  0  0  0  0  0  0
  147.7130  139.8720  151.9430 C   0  0  0  0  0  3  0  0  0  0  0  0
  146.9300  140.6140  151.0440 C   0  0  0  0  0  0  0  0  0  0  0  0
  146.3670  141.8260  151.4620 C   0  0  0  0  0  3  0  0  0  0  0  0
  146.5960  142.3010  152.7520 C   0  0  0  0  0  3  0  0  0  0  0  0
  147.3880  141.5610  153.6310 C   0  0  0  0  0  0  0  0  0  0  0  0
  148.1350  138.5720  154.8300 C   0  0  0  0  0  1  0  0  0  0  0  0
  148.7150  139.6930  154.1790 O   0  0  0  0  0  0  0  0  0  0  0  0
  147.6170  142.0310  154.8970 O   0  0  0  0  0  0  0  0  0  0  0  0
  147.9120  141.4470  155.5670 H   0  0  0  0  0  0  0  0  0  0  0  0
  1  2  1  0  0  0  0
  2  4  1  0  0  0  0
  3  2  2  0  0  0  0
  4  5  1  0  0  0  0
  5  6  1  0  0  0  0
  6  7  2  0  0  0  0
  6 11  1  0  0  0  0
  7  8  1  0  0  0  0
  8  9  2  0  0  0  0
  9 12  1  0  0  0  0
 10  9  1  0  0  0  0
 10 14  1  0  0  0  0
 11 10  2  0  0  0  0
 12 13  1  0  0  0  0
 15 14  1  0  0  0  0
 16  1  1  0  0  0  0
 16 17  1  0  0  0  0
 17 18  1  0  0  0  0
 18 21  1  0  0  0  0
 19 24  1  0  0  0  0
 19 26  1  0  0  0  0
 20 19  2  0  0  0  0
 21 22  2  0  0  0  0
 21 20  1  0  0  0  0
 22 23  1  0  0  0  0
 23 24  2  0  0  0  0
 24 27  1  0  0  0  0
 26 25  1  0  0  0  0
 27 28  1  0  0  0  0
M  END
>  <MODEL>
1

>  <REMARK>
 VINA RESULT:    -6.944      0.000      0.000
 INTER + INTRA:         -12.779
 INTER:                 -10.534
 INTRA:                  -2.245
 UNBOUND:                -1.369
  Name = CHEMBL1086760
  14 active torsions:
  status: ('A' for Active; 'I' for Inactive)
    1  A    between atoms: C_1  and  O_2
    2  A    between atoms: O_2  and  C_3
    3  A    between atoms: C_5  and  C_6
    4  A    between atoms: C_6  and  C_7
    5  A    between atoms: C_7  and  C_8
    6  A    between atoms: C_8  and  C_9
    7  A    between atoms: C_9  and  C_10
    8  A    between atoms: C_10  and  C_12
    9  A    between atoms: C_12  and  C_13
   10  A    between atoms: C_13  and  C_14
   11  A    between atoms: C_17  and  O_18
   12  A    between atoms: C_19  and  O_20
   13  A    between atoms: O_20  and  C_21
   14  A    between atoms: C_25  and  O_26
                            x       y       z     vdW  Elec       q    Type
                         _______ _______ _______ _____ _____    ______ ____

>  <TORSDO>
F 12

>  <SCORE>
-6.944

>  <RMSD_LB>
0.000

>  <RMSD_UB>
0.000

$$$$
CHEMBL1086760
 OpenBabel10172500033D

 28 29  0  0  0  0  0  0  0  0999 V2000
  146.2600  138.9240  149.4880 C   0  0  0  0  0  2  0  0  0  0  0  0
  145.3410  137.7270  149.3260 C   0  0  0  0  0  0  0  0  0  0  0  0
  144.8350  137.4320  148.2420 O   0  0  0  0  0  0  0  0  0  0  0  0
  145.0490  136.9140  150.5710 C   0  0  0  0  0  2  0  0  0  0  0  0
  143.5620  136.5990  150.6760 C   0  0  0  0  0  2  0  0  0  0  0  0
  142.8810  137.4010  151.7550 C   0  0  0  0  0  0  0  0  0  0  0  0
  143.5070  137.6000  152.9870 C   0  0  0  0  0  3  0  0  0  0  0  0
  142.8670  138.3330  153.9880 C   0  0  0  0  0  3  0  0  0  0  0  0
  141.5980  138.8770  153.7660 C   0  0  0  0  0  0  0  0  0  0  0  0
  140.9580  138.6990  152.5350 C   0  0  0  0  0  0  0  0  0  0  0  0
  141.6150  137.9620  151.5380 C   0  0  0  0  0  3  0  0  0  0  0  0
  141.0150  139.5830  154.7830 O   0  0  0  0  0  0  0  0  0  0  0  0
  141.3130  140.4490  154.9830 H   0  0  0  0  0  0  0  0  0  0  0  0
  139.7280  139.1530  152.1390 O   0  0  0  0  0  0  0  0  0  0  0  0
  139.2270  138.7220  150.8830 C   0  0  0  0  0  1  0  0  0  0  0  0
  145.5520  140.2440  149.2110 C   0  0  0  0  0  2  0  0  0  0  0  0
  144.6110  140.6090  150.3610 C   0  0  0  0  0  2  0  0  0  0  0  0
  145.1200  141.8340  151.1190 C   0  0  0  0  0  2  0  0  0  0  0  0
  146.7320  139.9600  154.0310 C   0  0  0  0  0  0  0  0  0  0  0  0
  145.8420  140.3260  153.0160 C   0  0  0  0  0  3  0  0  0  0  0  0
  146.0870  141.4530  152.2140 C   0  0  0  0  0  0  0  0  0  0  0  0
  147.2280  142.2300  152.4510 C   0  0  0  0  0  3  0  0  0  0  0  0
  148.1220  141.8780  153.4620 C   0  0  0  0  0  3  0  0  0  0  0  0
  147.8730  140.7480  154.2420 C   0  0  0  0  0  0  0  0  0  0  0  0
  146.8790  137.5970  154.3060 C   0  0  0  0  0  1  0  0  0  0  0  0
  146.5840  138.8730  154.8530 O   0  0  0  0  0  0  0  0  0  0  0  0
  148.7540  140.4000  155.2310 O   0  0  0  0  0  0  0  0  0  0  0  0
  149.6640  140.6050  155.1410 H   0  0  0  0  0  0  0  0  0  0  0  0
  2  1  1  0  0  0  0
  2  4  1  0  0  0  0
  3  2  2  0  0  0  0
  4  5  1  0  0  0  0
  5  6  1  0  0  0  0
  6  7  1  0  0  0  0
  7  8  2  0  0  0  0
  9  8  1  0  0  0  0
  9 12  1  0  0  0  0
 10  9  2  0  0  0  0
 11  6  2  0  0  0  0
 11 10  1  0  0  0  0
 12 13  1  0  0  0  0
 14 10  1  0  0  0  0
 15 14  1  0  0  0  0
 16  1  1  0  0  0  0
 16 17  1  0  0  0  0
 17 18  1  0  0  0  0
 18 21  1  0  0  0  0
 19 24  1  0  0  0  0
 19 26  1  0  0  0  0
 20 19  2  0  0  0  0
 21 22  2  0  0  0  0
 21 20  1  0  0  0  0
 22 23  1  0  0  0  0
 23 24  2  0  0  0  0
 24 27  1  0  0  0  0
 25 26  1  0  0  0  0
 28 27  1  0  0  0  0
M  END
>  <MODEL>
2

>  <REMARK>
 VINA RESULT:    -6.894      1.585      2.210
 INTER + INTRA:         -12.696
 INTER:                 -10.539
 INTRA:                  -2.157
 UNBOUND:                -1.369
  Name = CHEMBL1086760
  14 active torsions:
  status: ('A' for Active; 'I' for Inactive)
    1  A    between atoms: C_1  and  O_2
    2  A    between atoms: O_2  and  C_3
    3  A    between atoms: C_5  and  C_6
    4  A    between atoms: C_6  and  C_7
    5  A    between atoms: C_7  and  C_8
    6  A    between atoms: C_8  and  C_9
    7  A    between atoms: C_9  and  C_10
    8  A    between atoms: C_10  and  C_12
    9  A    between atoms: C_12  and  C_13
   10  A    between atoms: C_13  and  C_14
   11  A    between atoms: C_17  and  O_18
   12  A    between atoms: C_19  and  O_20
   13  A    between atoms: O_20  and  C_21
   14  A    between atoms: C_25  and  O_26
                            x       y       z     vdW  Elec       q    Type
                         _______ _______ _______ _____ _____    ______ ____

>  <TORSDO>
F 12

>  <SCORE>
-6.894

>  <RMSD_LB>
1.585

>  <RMSD_UB>
2.210

$$$$
CHEMBL1086760
 OpenBabel10172500033D

 28 29  0  0  0  0  0  0  0  0999 V2000
  146.0290  140.6000  148.5650 C   0  0  0  0  0  2  0  0  0  0  0  0
  146.4620  140.8160  147.1250 C   0  0  0  0  0  0  0  0  0  0  0  0
  146.7340  141.9320  146.6840 O   0  0  0  0  0  0  0  0  0  0  0  0
  146.5240  139.5890  146.2380 C   0  0  0  0  0  2  0  0  0  0  0  0
  147.5150  138.5710  146.7890 C   0  0  0  0  0  2  0  0  0  0  0  0
  148.7950  138.5310  145.9960 C   0  0  0  0  0  0  0  0  0  0  0  0
  149.0130  139.4420  144.9600 C   0  0  0  0  0  3  0  0  0  0  0  0
  150.1950  139.3920  144.2190 C   0  0  0  0  0  3  0  0  0  0  0  0
  151.1730  138.4350  144.5090 C   0  0  0  0  0  0  0  0  0  0  0  0
  150.9800  137.5200  145.5500 C   0  0  0  0  0  0  0  0  0  0  0  0
  149.7870  137.5840  146.2870 C   0  0  0  0  0  3  0  0  0  0  0  0
  152.3100  138.4280  143.7490 O   0  0  0  0  0  0  0  0  0  0  0  0
  152.3510  138.9380  142.9630 H   0  0  0  0  0  0  0  0  0  0  0  0
  151.8170  136.5230  145.9750 O   0  0  0  0  0  0  0  0  0  0  0  0
  151.6920  135.2420  145.3770 C   0  0  0  0  0  1  0  0  0  0  0  0
  146.9900  141.2350  149.5630 C   0  0  0  0  0  2  0  0  0  0  0  0
  146.5270  142.6420  149.9430 C   0  0  0  0  0  2  0  0  0  0  0  0
  145.5610  142.6020  151.1270 C   0  0  0  0  0  2  0  0  0  0  0  0
  145.9570  139.9900  153.8860 C   0  0  0  0  0  0  0  0  0  0  0  0
  145.4370  140.7210  152.8120 C   0  0  0  0  0  3  0  0  0  0  0  0
  146.1310  141.8250  152.2890 C   0  0  0  0  0  0  0  0  0  0  0  0
  147.3490  142.2070  152.8660 C   0  0  0  0  0  3  0  0  0  0  0  0
  147.8760  141.4890  153.9380 C   0  0  0  0  0  3  0  0  0  0  0  0
  147.1820  140.3860  154.4390 C   0  0  0  0  0  0  0  0  0  0  0  0
  144.5290  138.0990  153.6200 C   0  0  0  0  0  1  0  0  0  0  0  0
  145.3600  138.8940  154.4530 O   0  0  0  0  0  0  0  0  0  0  0  0
  147.7040  139.6780  155.4890 O   0  0  0  0  0  0  0  0  0  0  0  0
  148.5480  139.8990  155.8310 H   0  0  0  0  0  0  0  0  0  0  0  0
  1 16  1  0  0  0  0
  2  1  1  0  0  0  0
  3  2  2  0  0  0  0
  4  5  1  0  0  0  0
  4  2  1  0  0  0  0
  6 11  1  0  0  0  0
  6  5  1  0  0  0  0
  7  6  2  0  0  0  0
  8  9  2  0  0  0  0
  8  7  1  0  0  0  0
  9 10  1  0  0  0  0
 10 14  1  0  0  0  0
 10 11  2  0  0  0  0
 12  9  1  0  0  0  0
 13 12  1  0  0  0  0
 15 14  1  0  0  0  0
 16 17  1  0  0  0  0
 17 18  1  0  0  0  0
 18 21  1  0  0  0  0
 19 24  1  0  0  0  0
 19 26  1  0  0  0  0
 20 19  2  0  0  0  0
 21 20  1  0  0  0  0
 21 22  2  0  0  0  0
 22 23  1  0  0  0  0
 23 24  2  0  0  0  0
 24 27  1  0  0  0  0
 25 26  1  0  0  0  0
 27 28  1  0  0  0  0
M  END
>  <MODEL>
3

>  <REMARK>
 VINA RESULT:    -6.804      4.658      8.042
 INTER + INTRA:         -12.549
 INTER:                 -11.599
 INTRA:                  -0.949
 UNBOUND:                -1.369
  Name = CHEMBL1086760
  14 active torsions:
  status: ('A' for Active; 'I' for Inactive)
    1  A    between atoms: C_1  and  O_2
    2  A    between atoms: O_2  and  C_3
    3  A    between atoms: C_5  and  C_6
    4  A    between atoms: C_6  and  C_7
    5  A    between atoms: C_7  and  C_8
    6  A    between atoms: C_8  and  C_9
    7  A    between atoms: C_9  and  C_10
    8  A    between atoms: C_10  and  C_12
    9  A    between atoms: C_12  and  C_13
   10  A    between atoms: C_13  and  C_14
   11  A    between atoms: C_17  and  O_18
   12  A    between atoms: C_19  and  O_20
   13  A    between atoms: O_20  and  C_21
   14  A    between atoms: C_25  and  O_26
                            x       y       z     vdW  Elec       q    Type
                         _______ _______ _______ _____ _____    ______ ____

>  <TORSDO>
F 12

>  <SCORE>
-6.804

>  <RMSD_LB>
4.658

>  <RMSD_UB>
8.042

$$$$
CHEMBL1086760
 OpenBabel10172500033D

 28 29  0  0  0  0  0  0  0  0999 V2000
  143.4370  138.0650  148.5070 C   0  0  0  0  0  2  0  0  0  0  0  0
  144.5810  139.0560  148.3800 C   0  0  0  0  0  0  0  0  0  0  0  0
  144.5450  139.9980  147.5890 O   0  0  0  0  0  0  0  0  0  0  0  0
  145.7910  138.8200  149.2600 C   0  0  0  0  0  2  0  0  0  0  0  0
  146.6280  140.0880  149.3810 C   0  0  0  0  0  2  0  0  0  0  0  0
  146.6010  140.6630  150.7730 C   0  0  0  0  0  0  0  0  0  0  0  0
  145.8730  141.8240  151.0430 C   0  0  0  0  0  3  0  0  0  0  0  0
  145.8610  142.3610  152.3310 C   0  0  0  0  0  3  0  0  0  0  0  0
  146.5720  141.7400  153.3640 C   0  0  0  0  0  0  0  0  0  0  0  0
  147.2990  140.5700  153.1180 C   0  0  0  0  0  0  0  0  0  0  0  0
  147.3000  140.0420  151.8180 C   0  0  0  0  0  3  0  0  0  0  0  0
  146.5290  142.3110  154.6060 O   0  0  0  0  0  0  0  0  0  0  0  0
  146.0410  141.9000  155.2930 H   0  0  0  0  0  0  0  0  0  0  0  0
  148.0470  139.8310  153.9940 O   0  0  0  0  0  0  0  0  0  0  0  0
  147.3990  138.8030  154.7280 C   0  0  0  0  0  1  0  0  0  0  0  0
  143.8400  136.8030  149.2590 C   0  0  0  0  0  2  0  0  0  0  0  0
  142.8620  136.5120  150.3980 C   0  0  0  0  0  2  0  0  0  0  0  0
  142.0140  137.7420  150.7200 C   0  0  0  0  0  2  0  0  0  0  0  0
  141.5450  138.8160  154.3560 C   0  0  0  0  0  0  0  0  0  0  0  0
  141.2880  138.3270  153.0700 C   0  0  0  0  0  3  0  0  0  0  0  0
  142.3040  138.2760  152.1020 C   0  0  0  0  0  0  0  0  0  0  0  0
  143.5850  138.7410  152.4250 C   0  0  0  0  0  3  0  0  0  0  0  0
  143.8530  139.2330  153.7010 C   0  0  0  0  0  3  0  0  0  0  0  0
  142.8380  139.2650  154.6580 C   0  0  0  0  0  0  0  0  0  0  0  0
  140.3610  137.7040  156.1010 C   0  0  0  0  0  1  0  0  0  0  0  0
  140.6230  138.8910  155.3670 O   0  0  0  0  0  0  0  0  0  0  0  0
  143.1040  139.7450  155.9130 O   0  0  0  0  0  0  0  0  0  0  0  0
  142.9150  139.2190  156.6650 H   0  0  0  0  0  0  0  0  0  0  0  0
  1 16  1  0  0  0  0
  2  1  1  0  0  0  0
  2  4  1  0  0  0  0
  3  2  2  0  0  0  0
  4  5  1  0  0  0  0
  5  6  1  0  0  0  0
  6  7  2  0  0  0  0
  6 11  1  0  0  0  0
  7  8  1  0  0  0  0
  8  9  2  0  0  0  0
  9 12  1  0  0  0  0
 10  9  1  0  0  0  0
 10 14  1  0  0  0  0
 11 10  2  0  0  0  0
 12 13  1  0  0  0  0
 14 15  1  0  0  0  0
 16 17  1  0  0  0  0
 17 18  1  0  0  0  0
 18 21  1  0  0  0  0
 19 24  1  0  0  0  0
 19 26  1  0  0  0  0
 20 19  2  0  0  0  0
 21 22  2  0  0  0  0
 21 20  1  0  0  0  0
 22 23  1  0  0  0  0
 23 24  2  0  0  0  0
 24 27  1  0  0  0  0
 26 25  1  0  0  0  0
 27 28  1  0  0  0  0
M  END
>  <MODEL>
4

>  <REMARK>
 VINA RESULT:    -6.598      1.091      5.267
 INTER + INTRA:         -12.210
 INTER:                 -10.045
 INTRA:                  -2.165
 UNBOUND:                -1.369
  Name = CHEMBL1086760
  14 active torsions:
  status: ('A' for Active; 'I' for Inactive)
    1  A    between atoms: C_1  and  O_2
    2  A    between atoms: O_2  and  C_3
    3  A    between atoms: C_5  and  C_6
    4  A    between atoms: C_6  and  C_7
    5  A    between atoms: C_7  and  C_8
    6  A    between atoms: C_8  and  C_9
    7  A    between atoms: C_9  and  C_10
    8  A    between atoms: C_10  and  C_12
    9  A    between atoms: C_12  and  C_13
   10  A    between atoms: C_13  and  C_14
   11  A    between atoms: C_17  and  O_18
   12  A    between atoms: C_19  and  O_20
   13  A    between atoms: O_20  and  C_21
   14  A    between atoms: C_25  and  O_26
                            x       y       z     vdW  Elec       q    Type
                         _______ _______ _______ _____ _____    ______ ____

>  <TORSDO>
F 12

>  <SCORE>
-6.598

>  <RMSD_LB>
1.091

>  <RMSD_UB>
5.267

$$$$
CHEMBL1086760
 OpenBabel10172500033D

 28 29  0  0  0  0  0  0  0  0999 V2000
  143.4870  138.4290  148.2160 C   0  0  0  0  0  2  0  0  0  0  0  0
  144.6470  139.3850  148.4320 C   0  0  0  0  0  0  0  0  0  0  0  0
  144.8720  140.3240  147.6670 O   0  0  0  0  0  0  0  0  0  0  0  0
  145.5400  139.1200  149.6270 C   0  0  0  0  0  2  0  0  0  0  0  0
  146.7030  140.1040  149.6630 C   0  0  0  0  0  2  0  0  0  0  0  0
  146.9940  140.5970  151.0560 C   0  0  0  0  0  0  0  0  0  0  0  0
  146.4660  141.8120  151.5000 C   0  0  0  0  0  3  0  0  0  0  0  0
  146.7490  142.2710  152.7870 C   0  0  0  0  0  3  0  0  0  0  0  0
  147.5580  141.5190  153.6460 C   0  0  0  0  0  0  0  0  0  0  0  0
  148.0880  140.2950  153.2260 C   0  0  0  0  0  0  0  0  0  0  0  0
  147.7930  139.8450  151.9290 C   0  0  0  0  0  3  0  0  0  0  0  0
  147.8070  142.0180  154.8950 O   0  0  0  0  0  0  0  0  0  0  0  0
  148.5890  142.5090  155.0550 H   0  0  0  0  0  0  0  0  0  0  0  0
  148.8920  139.4300  153.9190 O   0  0  0  0  0  0  0  0  0  0  0  0
  148.3010  138.2650  154.4750 C   0  0  0  0  0  1  0  0  0  0  0  0
  143.9210  136.9690  148.2590 C   0  0  0  0  0  2  0  0  0  0  0  0
  143.0730  136.1790  149.2570 C   0  0  0  0  0  2  0  0  0  0  0  0
  143.2860  136.6860  150.6820 C   0  0  0  0  0  2  0  0  0  0  0  0
  140.8190  138.2090  153.1690 C   0  0  0  0  0  0  0  0  0  0  0  0
  142.0030  137.7400  152.5880 C   0  0  0  0  0  3  0  0  0  0  0  0
  142.0020  137.1840  151.2980 C   0  0  0  0  0  0  0  0  0  0  0  0
  140.7940  137.0790  150.5960 C   0  0  0  0  0  3  0  0  0  0  0  0
  139.6080  137.5400  151.1650 C   0  0  0  0  0  3  0  0  0  0  0  0
  139.6260  138.1030  152.4410 C   0  0  0  0  0  0  0  0  0  0  0  0
  141.9290  139.2300  155.0160 C   0  0  0  0  0  1  0  0  0  0  0  0
  140.7250  138.7780  154.4120 O   0  0  0  0  0  0  0  0  0  0  0  0
  138.4600  138.5600  152.9970 O   0  0  0  0  0  0  0  0  0  0  0  0
  138.2200  138.2990  153.8640 H   0  0  0  0  0  0  0  0  0  0  0  0
  1 16  1  0  0  0  0
  1  2  1  0  0  0  0
  2  4  1  0  0  0  0
  3  2  2  0  0  0  0
  4  5  1  0  0  0  0
  5  6  1  0  0  0  0
  6  7  2  0  0  0  0
  6 11  1  0  0  0  0
  7  8  1  0  0  0  0
  8  9  2  0  0  0  0
  9 12  1  0  0  0  0
 10  9  1  0  0  0  0
 10 14  1  0  0  0  0
 11 10  2  0  0  0  0
 12 13  1  0  0  0  0
 14 15  1  0  0  0  0
 16 17  1  0  0  0  0
 17 18  1  0  0  0  0
 18 21  1  0  0  0  0
 19 26  1  0  0  0  0
 20 19  1  0  0  0  0
 21 20  2  0  0  0  0
 22 23  2  0  0  0  0
 22 21  1  0  0  0  0
 23 24  1  0  0  0  0
 24 27  1  0  0  0  0
 24 19  2  0  0  0  0
 26 25  1  0  0  0  0
 27 28  1  0  0  0  0
M  END
>  <MODEL>
5

>  <REMARK>
 VINA RESULT:    -6.391      1.441      6.111
 INTER + INTRA:         -11.870
 INTER:                 -10.560
 INTRA:                  -1.310
 UNBOUND:                -1.369
  Name = CHEMBL1086760
  14 active torsions:
  status: ('A' for Active; 'I' for Inactive)
    1  A    between atoms: C_1  and  O_2
    2  A    between atoms: O_2  and  C_3
    3  A    between atoms: C_5  and  C_6
    4  A    between atoms: C_6  and  C_7
    5  A    between atoms: C_7  and  C_8
    6  A    between atoms: C_8  and  C_9
    7  A    between atoms: C_9  and  C_10
    8  A    between atoms: C_10  and  C_12
    9  A    between atoms: C_12  and  C_13
   10  A    between atoms: C_13  and  C_14
   11  A    between atoms: C_17  and  O_18
   12  A    between atoms: C_19  and  O_20
   13  A    between atoms: O_20  and  C_21
   14  A    between atoms: C_25  and  O_26
                            x       y       z     vdW  Elec       q    Type
                         _______ _______ _______ _____ _____    ______ ____

>  <TORSDO>
F 12

>  <SCORE>
-6.391

>  <RMSD_LB>
1.441

>  <RMSD_UB>
6.111

$$$$
CHEMBL1086760
 OpenBabel10172500033D

 28 29  0  0  0  0  0  0  0  0999 V2000
  137.3730  138.2260  149.4400 C   0  0  0  0  0  2  0  0  0  0  0  0
  137.3970  139.3980  148.4750 C   0  0  0  0  0  0  0  0  0  0  0  0
  137.4490  140.5650  148.8650 O   0  0  0  0  0  0  0  0  0  0  0  0
  137.3290  139.0710  146.9970 C   0  0  0  0  0  2  0  0  0  0  0  0
  135.9280  138.6140  146.6070 C   0  0  0  0  0  2  0  0  0  0  0  0
  135.9440  137.3420  145.8000 C   0  0  0  0  0  0  0  0  0  0  0  0
  134.7770  136.8820  145.1860 C   0  0  0  0  0  3  0  0  0  0  0  0
  134.7920  135.6960  144.4500 C   0  0  0  0  0  3  0  0  0  0  0  0
  135.9750  134.9620  144.3150 C   0  0  0  0  0  0  0  0  0  0  0  0
  137.1580  135.4110  144.9120 C   0  0  0  0  0  0  0  0  0  0  0  0
  137.1270  136.6060  145.6480 C   0  0  0  0  0  3  0  0  0  0  0  0
  135.9340  133.8050  143.5860 O   0  0  0  0  0  0  0  0  0  0  0  0
  136.5320  133.1090  143.7780 H   0  0  0  0  0  0  0  0  0  0  0  0
  138.3990  134.8320  144.8890 O   0  0  0  0  0  0  0  0  0  0  0  0
  139.4980  135.6180  144.4520 C   0  0  0  0  0  1  0  0  0  0  0  0
  138.4940  137.2290  149.1730 C   0  0  0  0  0  2  0  0  0  0  0  0
  137.9440  135.8060  149.0680 C   0  0  0  0  0  2  0  0  0  0  0  0
  136.5690  135.6990  149.7260 C   0  0  0  0  0  2  0  0  0  0  0  0
  135.1060  133.2280  147.2080 C   0  0  0  0  0  0  0  0  0  0  0  0
  136.0120  133.9170  148.0220 C   0  0  0  0  0  3  0  0  0  0  0  0
  135.5830  134.9680  148.8490 C   0  0  0  0  0  0  0  0  0  0  0  0
  134.2330  135.3430  148.8390 C   0  0  0  0  0  3  0  0  0  0  0  0
  133.3210  134.6670  148.0290 C   0  0  0  0  0  3  0  0  0  0  0  0
  133.7590  133.6150  147.2230 C   0  0  0  0  0  0  0  0  0  0  0  0
  136.8030  131.8450  146.2650 C   0  0  0  0  0  1  0  0  0  0  0  0
  135.4300  132.1840  146.3810 O   0  0  0  0  0  0  0  0  0  0  0  0
  132.8610  132.9490  146.4320 O   0  0  0  0  0  0  0  0  0  0  0  0
  131.9560  132.9180  146.6740 H   0  0  0  0  0  0  0  0  0  0  0  0
  2  3  2  0  0  0  0
  2  1  1  0  0  0  0
  4  2  1  0  0  0  0
  5  4  1  0  0  0  0
  6  5  1  0  0  0  0
  7  6  2  0  0  0  0
  8  7  1  0  0  0  0
  9  8  2  0  0  0  0
  9 10  1  0  0  0  0
 10 11  2  0  0  0  0
 11  6  1  0  0  0  0
 12 13  1  0  0  0  0
 12  9  1  0  0  0  0
 14 10  1  0  0  0  0
 15 14  1  0  0  0  0
 16  1  1  0  0  0  0
 17 16  1  0  0  0  0
 17 18  1  0  0  0  0
 19 24  2  0  0  0  0
 19 20  1  0  0  0  0
 20 21  2  0  0  0  0
 21 18  1  0  0  0  0
 22 21  1  0  0  0  0
 23 22  2  0  0  0  0
 24 23  1  0  0  0  0
 25 26  1  0  0  0  0
 26 19  1  0  0  0  0
 27 28  1  0  0  0  0
 27 24  1  0  0  0  0
M  END
>  <MODEL>
6

>  <REMARK>
 VINA RESULT:    -6.178      8.294     12.504
 INTER + INTRA:         -11.520
 INTER:                  -8.216
 INTRA:                  -3.304
 UNBOUND:                -1.369
  Name = CHEMBL1086760
  14 active torsions:
  status: ('A' for Active; 'I' for Inactive)
    1  A    between atoms: C_1  and  O_2
    2  A    between atoms: O_2  and  C_3
    3  A    between atoms: C_5  and  C_6
    4  A    between atoms: C_6  and  C_7
    5  A    between atoms: C_7  and  C_8
    6  A    between atoms: C_8  and  C_9
    7  A    between atoms: C_9  and  C_10
    8  A    between atoms: C_10  and  C_12
    9  A    between atoms: C_12  and  C_13
   10  A    between atoms: C_13  and  C_14
   11  A    between atoms: C_17  and  O_18
   12  A    between atoms: C_19  and  O_20
   13  A    between atoms: O_20  and  C_21
   14  A    between atoms: C_25  and  O_26
                            x       y       z     vdW  Elec       q    Type
                         _______ _______ _______ _____ _____    ______ ____

>  <TORSDO>
F 12

>  <SCORE>
-6.178

>  <RMSD_LB>
8.294

>  <RMSD_UB>
12.504

$$$$
CHEMBL1086760
 OpenBabel10172500033D

 28 29  0  0  0  0  0  0  0  0999 V2000
  146.0710  140.4910  148.7440 C   0  0  0  0  0  2  0  0  0  0  0  0
  146.1350  139.5810  147.5300 C   0  0  0  0  0  0  0  0  0  0  0  0
  147.0010  139.7070  146.6630 O   0  0  0  0  0  0  0  0  0  0  0  0
  145.0650  138.5140  147.4160 C   0  0  0  0  0  2  0  0  0  0  0  0
  145.0060  137.6700  148.6830 C   0  0  0  0  0  2  0  0  0  0  0  0
  145.9590  136.5040  148.6400 C   0  0  0  0  0  0  0  0  0  0  0  0
  146.7220  136.1740  149.7630 C   0  0  0  0  0  3  0  0  0  0  0  0
  147.6130  135.1000  149.7140 C   0  0  0  0  0  3  0  0  0  0  0  0
  147.7470  134.3430  148.5450 C   0  0  0  0  0  0  0  0  0  0  0  0
  146.9850  134.6500  147.4130 C   0  0  0  0  0  0  0  0  0  0  0  0
  146.0920  135.7310  147.4780 C   0  0  0  0  0  3  0  0  0  0  0  0
  148.6380  133.3060  148.5510 O   0  0  0  0  0  0  0  0  0  0  0  0
  149.1570  133.1300  147.7900 H   0  0  0  0  0  0  0  0  0  0  0  0
  146.9810  134.0280  146.1930 O   0  0  0  0  0  0  0  0  0  0  0  0
  145.9010  134.2930  145.3090 C   0  0  0  0  0  1  0  0  0  0  0  0
  146.6690  141.8660  148.4730 C   0  0  0  0  0  2  0  0  0  0  0  0
  146.5710  142.7560  149.7140 C   0  0  0  0  0  2  0  0  0  0  0  0
  147.8470  142.6750  150.5510 C   0  0  0  0  0  2  0  0  0  0  0  0
  148.2470  140.0630  153.3090 C   0  0  0  0  0  0  0  0  0  0  0  0
  148.4340  140.7870  152.1260 C   0  0  0  0  0  3  0  0  0  0  0  0
  147.6310  141.9000  151.8280 C   0  0  0  0  0  0  0  0  0  0  0  0
  146.6180  142.2750  152.7190 C   0  0  0  0  0  3  0  0  0  0  0  0
  146.4190  141.5610  153.8990 C   0  0  0  0  0  3  0  0  0  0  0  0
  147.2330  140.4650  154.1900 C   0  0  0  0  0  0  0  0  0  0  0  0
  148.7660  137.7580  152.9920 C   0  0  0  0  0  1  0  0  0  0  0  0
  148.9880  138.9750  153.6900 O   0  0  0  0  0  0  0  0  0  0  0  0
  147.0400  139.7670  155.3520 O   0  0  0  0  0  0  0  0  0  0  0  0
  147.3010  140.1400  156.1720 H   0  0  0  0  0  0  0  0  0  0  0  0
  2  1  1  0  0  0  0
  3  2  2  0  0  0  0
  4  2  1  0  0  0  0
  4  5  1  0  0  0  0
  6  5  1  0  0  0  0
  6  7  1  0  0  0  0
  8  7  2  0  0  0  0
  9 12  1  0  0  0  0
  9  8  1  0  0  0  0
 10 11  1  0  0  0  0
 10  9  2  0  0  0  0
 11  6  2  0  0  0  0
 13 12  1  0  0  0  0
 14 10  1  0  0  0  0
 15 14  1  0  0  0  0
 16  1  1  0  0  0  0
 16 17  1  0  0  0  0
 17 18  1  0  0  0  0
 18 21  1  0  0  0  0
 19 26  1  0  0  0  0
 19 24  1  0  0  0  0
 20 19  2  0  0  0  0
 21 20  1  0  0  0  0
 21 22  2  0  0  0  0
 22 23  1  0  0  0  0
 23 24  2  0  0  0  0
 24 27  1  0  0  0  0
 25 26  1  0  0  0  0
 27 28  1  0  0  0  0
M  END
>  <MODEL>
7

>  <REMARK>
 VINA RESULT:    -6.079      3.438      5.870
 INTER + INTRA:         -11.357
 INTER:                 -10.041
 INTRA:                  -1.316
 UNBOUND:                -1.369
  Name = CHEMBL1086760
  14 active torsions:
  status: ('A' for Active; 'I' for Inactive)
    1  A    between atoms: C_1  and  O_2
    2  A    between atoms: O_2  and  C_3
    3  A    between atoms: C_5  and  C_6
    4  A    between atoms: C_6  and  C_7
    5  A    between atoms: C_7  and  C_8
    6  A    between atoms: C_8  and  C_9
    7  A    between atoms: C_9  and  C_10
    8  A    between atoms: C_10  and  C_12
    9  A    between atoms: C_12  and  C_13
   10  A    between atoms: C_13  and  C_14
   11  A    between atoms: C_17  and  O_18
   12  A    between atoms: C_19  and  O_20
   13  A    between atoms: O_20  and  C_21
   14  A    between atoms: C_25  and  O_26
                            x       y       z     vdW  Elec       q    Type
                         _______ _______ _______ _____ _____    ______ ____

>  <TORSDO>
F 12

>  <SCORE>
-6.079

>  <RMSD_LB>
3.438

>  <RMSD_UB>
5.870

$$$$
CHEMBL1086760
 OpenBabel10172500033D

 28 29  0  0  0  0  0  0  0  0999 V2000
  139.9920  137.5150  149.7140 C   0  0  0  0  0  2  0  0  0  0  0  0
  140.8970  136.4460  149.1250 C   0  0  0  0  0  0  0  0  0  0  0  0
  142.0300  136.2370  149.5600 O   0  0  0  0  0  0  0  0  0  0  0  0
  140.3510  135.6560  147.9540 C   0  0  0  0  0  2  0  0  0  0  0  0
  139.4310  134.5400  148.4350 C   0  0  0  0  0  2  0  0  0  0  0  0
  138.1240  134.5110  147.6860 C   0  0  0  0  0  0  0  0  0  0  0  0
  137.6910  133.3360  147.0680 C   0  0  0  0  0  3  0  0  0  0  0  0
  136.4860  133.3170  146.3640 C   0  0  0  0  0  3  0  0  0  0  0  0
  135.7000  134.4710  146.2740 C   0  0  0  0  0  0  0  0  0  0  0  0
  136.1100  135.6560  146.8950 C   0  0  0  0  0  0  0  0  0  0  0  0
  137.3230  135.6590  147.6010 C   0  0  0  0  0  3  0  0  0  0  0  0
  134.5310  134.3980  145.5680 O   0  0  0  0  0  0  0  0  0  0  0  0
  134.3920  134.9630  144.8330 H   0  0  0  0  0  0  0  0  0  0  0  0
  135.4790  136.8710  146.9150 O   0  0  0  0  0  0  0  0  0  0  0  0
  135.8500  137.8350  145.9410 C   0  0  0  0  0  1  0  0  0  0  0  0
  139.8350  137.3790  151.2230 C   0  0  0  0  0  2  0  0  0  0  0  0
  138.4020  137.6970  151.6510 C   0  0  0  0  0  2  0  0  0  0  0  0
  137.4100  136.7190  151.0210 C   0  0  0  0  0  2  0  0  0  0  0  0
  134.1160  135.4120  152.4440 C   0  0  0  0  0  0  0  0  0  0  0  0
  135.1060  135.8200  151.5440 C   0  0  0  0  0  3  0  0  0  0  0  0
  136.3490  136.2870  152.0030 C   0  0  0  0  0  0  0  0  0  0  0  0
  136.5880  136.3630  153.3810 C   0  0  0  0  0  3  0  0  0  0  0  0
  135.6080  135.9620  154.2880 C   0  0  0  0  0  3  0  0  0  0  0  0
  134.3830  135.4870  153.8180 C   0  0  0  0  0  0  0  0  0  0  0  0
  132.5350  134.9740  150.7140 C   0  0  0  0  0  1  0  0  0  0  0  0
  132.8820  134.9310  152.0900 O   0  0  0  0  0  0  0  0  0  0  0  0
  133.4230  135.0890  154.7110 O   0  0  0  0  0  0  0  0  0  0  0  0
  133.5460  134.3070  155.2130 H   0  0  0  0  0  0  0  0  0  0  0  0
  1 16  1  0  0  0  0
  2  3  2  0  0  0  0
  2  1  1  0  0  0  0
  4  5  1  0  0  0  0
  4  2  1  0  0  0  0
  6  5  1  0  0  0  0
  7  6  2  0  0  0  0
  8  7  1  0  0  0  0
  9  8  2  0  0  0  0
  9 10  1  0  0  0  0
 10 14  1  0  0  0  0
 10 11  2  0  0  0  0
 11  6  1  0  0  0  0
 12  9  1  0  0  0  0
 13 12  1  0  0  0  0
 15 14  1  0  0  0  0
 16 17  1  0  0  0  0
 18 17  1  0  0  0  0
 18 21  1  0  0  0  0
 19 24  1  0  0  0  0
 20 21  1  0  0  0  0
 20 19  2  0  0  0  0
 21 22  2  0  0  0  0
 22 23  1  0  0  0  0
 24 23  2  0  0  0  0
 24 27  1  0  0  0  0
 25 26  1  0  0  0  0
 26 19  1  0  0  0  0
 27 28  1  0  0  0  0
M  END
>  <MODEL>
8

>  <REMARK>
 VINA RESULT:    -5.950      6.368     11.001
 INTER + INTRA:         -11.144
 INTER:                  -9.518
 INTRA:                  -1.627
 UNBOUND:                -1.369
  Name = CHEMBL1086760
  14 active torsions:
  status: ('A' for Active; 'I' for Inactive)
    1  A    between atoms: C_1  and  O_2
    2  A    between atoms: O_2  and  C_3
    3  A    between atoms: C_5  and  C_6
    4  A    between atoms: C_6  and  C_7
    5  A    between atoms: C_7  and  C_8
    6  A    between atoms: C_8  and  C_9
    7  A    between atoms: C_9  and  C_10
    8  A    between atoms: C_10  and  C_12
    9  A    between atoms: C_12  and  C_13
   10  A    between atoms: C_13  and  C_14
   11  A    between atoms: C_17  and  O_18
   12  A    between atoms: C_19  and  O_20
   13  A    between atoms: O_20  and  C_21
   14  A    between atoms: C_25  and  O_26
                            x       y       z     vdW  Elec       q    Type
                         _______ _______ _______ _____ _____    ______ ____

>  <TORSDO>
F 12

>  <SCORE>
-5.950

>  <RMSD_LB>
6.368

>  <RMSD_UB>
11.001

$$$$
CHEMBL1086760
 OpenBabel10172500033D

 28 29  0  0  0  0  0  0  0  0999 V2000
  143.6310  137.5270  148.7120 C   0  0  0  0  0  2  0  0  0  0  0  0
  142.9560  136.3470  149.3890 C   0  0  0  0  0  0  0  0  0  0  0  0
  143.5710  135.3220  149.6820 O   0  0  0  0  0  0  0  0  0  0  0  0
  141.4720  136.4750  149.6700 C   0  0  0  0  0  2  0  0  0  0  0  0
  141.1260  137.8920  150.1100 C   0  0  0  0  0  2  0  0  0  0  0  0
  140.2760  137.9140  151.3540 C   0  0  0  0  0  0  0  0  0  0  0  0
  140.8120  138.3510  152.5680 C   0  0  0  0  0  3  0  0  0  0  0  0
  140.0250  138.3570  153.7200 C   0  0  0  0  0  3  0  0  0  0  0  0
  138.6930  137.9320  153.6710 C   0  0  0  0  0  0  0  0  0  0  0  0
  138.1330  137.5010  152.4640 C   0  0  0  0  0  0  0  0  0  0  0  0
  138.9360  137.5020  151.3130 C   0  0  0  0  0  3  0  0  0  0  0  0
  137.9680  137.9540  154.8310 O   0  0  0  0  0  0  0  0  0  0  0  0
  137.1600  138.4280  154.8690 H   0  0  0  0  0  0  0  0  0  0  0  0
  136.8610  137.0530  152.2250 O   0  0  0  0  0  0  0  0  0  0  0  0
  136.5400  136.6150  150.9130 C   0  0  0  0  0  1  0  0  0  0  0  0
  144.8930  137.9720  149.4400 C   0  0  0  0  0  2  0  0  0  0  0  0
  144.7090  139.3640  150.0460 C   0  0  0  0  0  2  0  0  0  0  0  0
  144.3170  139.2740  151.5210 C   0  0  0  0  0  2  0  0  0  0  0  0
  147.0800  139.8820  154.0860 C   0  0  0  0  0  0  0  0  0  0  0  0
  146.1500  139.2410  153.2610 C   0  0  0  0  0  3  0  0  0  0  0  0
  145.3120  139.9790  152.4090 C   0  0  0  0  0  0  0  0  0  0  0  0
  145.3980  141.3770  152.4040 C   0  0  0  0  0  3  0  0  0  0  0  0
  146.3180  142.0290  153.2240 C   0  0  0  0  0  3  0  0  0  0  0  0
  147.1540  141.2820  154.0550 C   0  0  0  0  0  0  0  0  0  0  0  0
  147.3810  138.5030  156.0070 C   0  0  0  0  0  1  0  0  0  0  0  0
  147.9460  139.2470  154.9380 O   0  0  0  0  0  0  0  0  0  0  0  0
  148.0610  141.9230  154.8560 O   0  0  0  0  0  0  0  0  0  0  0  0
  148.4730  142.7110  154.5600 H   0  0  0  0  0  0  0  0  0  0  0  0
  1  2  1  0  0  0  0
  1 16  1  0  0  0  0
  2  4  1  0  0  0  0
  2  3  2  0  0  0  0
  4  5  1  0  0  0  0
  5  6  1  0  0  0  0
  6  7  1  0  0  0  0
  7  8  2  0  0  0  0
  9  8  1  0  0  0  0
  9 12  1  0  0  0  0
 10  9  2  0  0  0  0
 11  6  2  0  0  0  0
 11 10  1  0  0  0  0
 12 13  1  0  0  0  0
 14 10  1  0  0  0  0
 15 14  1  0  0  0  0
 16 17  1  0  0  0  0
 17 18  1  0  0  0  0
 18 21  1  0  0  0  0
 19 26  1  0  0  0  0
 20 19  2  0  0  0  0
 21 20  1  0  0  0  0
 22 21  2  0  0  0  0
 22 23  1  0  0  0  0
 23 24  2  0  0  0  0
 24 19  1  0  0  0  0
 24 27  1  0  0  0  0
 26 25  1  0  0  0  0
 28 27  1  0  0  0  0
M  END
>  <MODEL>
9

>  <REMARK>
 VINA RESULT:    -5.941      2.242      3.128
 INTER + INTRA:         -11.130
 INTER:                  -9.761
 INTRA:                  -1.369
 UNBOUND:                -1.369
  Name = CHEMBL1086760
  14 active torsions:
  status: ('A' for Active; 'I' for Inactive)
    1  A    between atoms: C_1  and  O_2
    2  A    between atoms: O_2  and  C_3
    3  A    between atoms: C_5  and  C_6
    4  A    between atoms: C_6  and  C_7
    5  A    between atoms: C_7  and  C_8
    6  A    between atoms: C_8  and  C_9
    7  A    between atoms: C_9  and  C_10
    8  A    between atoms: C_10  and  C_12
    9  A    between atoms: C_12  and  C_13
   10  A    between atoms: C_13  and  C_14
   11  A    between atoms: C_17  and  O_18
   12  A    between atoms: C_19  and  O_20
   13  A    between atoms: O_20  and  C_21
   14  A    between atoms: C_25  and  O_26
                            x       y       z     vdW  Elec       q    Type
                         _______ _______ _______ _____ _____    ______ ____

>  <TORSDO>
F 12

>  <SCORE>
-5.941

>  <RMSD_LB>
2.242

>  <RMSD_UB>
3.128

$$$$
