CHEMBL314262
 OpenBabel10172500323D

 24 24  0  0  0  0  0  0  0  0999 V2000
  138.8740  137.6620  154.1700 N   0  0  0  0  0  0  0  0  0  0  0  0
  138.0600  138.0240  155.2240 C   0  0  0  0  0  0  0  0  0  0  0  0
  137.2920  138.9820  155.1810 O   0  0  0  0  0  0  0  0  0  0  0  0
  139.5380  136.9430  154.2820 H   0  0  0  0  0  0  0  0  0  0  0  0
  138.7480  138.3440  152.9000 C   0  0  0  0  0  2  0  0  0  0  0  0
  138.0600  137.4790  151.8480 C   0  0  0  0  0  2  0  0  0  0  0  0
  136.9260  136.6700  152.4750 C   0  0  0  0  0  2  0  0  0  0  0  0
  136.2240  135.7940  151.4370 C   0  0  0  0  0  2  0  0  0  0  0  0
  135.9760  134.3890  151.9850 C   0  0  0  0  0  2  0  0  0  0  0  0
  134.4840  134.0590  151.9940 C   0  0  0  0  0  2  0  0  0  0  0  0
  133.6380  135.3250  151.8610 C   0  0  0  0  0  2  0  0  0  0  0  0
  132.6760  133.8200  150.0870 C   0  0  0  0  0  1  0  0  0  0  0  0
  132.5480  135.1530  150.8040 C   0  0  0  0  0  2  0  0  0  0  0  0
  138.1540  137.1130  156.4380 C   0  0  0  0  0  2  0  0  0  0  0  0
  136.8950  136.3040  156.6310 C   0  0  0  0  0  0  0  0  0  0  0  0
  136.1720  135.8550  155.5210 C   0  0  0  0  0  3  0  0  0  0  0  0
  135.0470  135.0480  155.6880 C   0  0  0  0  0  3  0  0  0  0  0  0
  134.6250  134.6870  156.9720 C   0  0  0  0  0  0  0  0  0  0  0  0
  135.3080  135.1560  158.0990 C   0  0  0  0  0  0  0  0  0  0  0  0
  136.4380  135.9680  157.9130 C   0  0  0  0  0  3  0  0  0  0  0  0
  133.5390  133.8630  157.0790 O   0  0  0  0  0  0  0  0  0  0  0  0
  132.7020  134.1490  156.7680 H   0  0  0  0  0  0  0  0  0  0  0  0
  135.0300  134.9240  159.4210 O   0  0  0  0  0  0  0  0  0  0  0  0
  134.0610  135.7490  160.0520 C   0  0  0  0  0  1  0  0  0  0  0  0
  1  4  1  0  0  0  0
  1  2  1  0  0  0  0
  2 14  1  0  0  0  0
  3  2  2  0  0  0  0
  5  1  1  0  0  0  0
  6  7  1  0  0  0  0
  6  5  1  0  0  0  0
  8  9  1  0  0  0  0
  8  7  1  0  0  0  0
  9 10  1  0  0  0  0
 11 10  1  0  0  0  0
 12 13  1  0  0  0  0
 13 11  1  0  0  0  0
 14 15  1  0  0  0  0
 15 20  1  0  0  0  0
 16 17  1  0  0  0  0
 16 15  2  0  0  0  0
 17 18  2  0  0  0  0
 18 21  1  0  0  0  0
 18 19  1  0  0  0  0
 19 23  1  0  0  0  0
 20 19  2  0  0  0  0
 22 21  1  0  0  0  0
 23 24  1  0  0  0  0
M  END
>  <MODEL>
1

>  <REMARK>
 VINA RESULT:    -6.648      0.000      0.000
 INTER + INTRA:         -11.815
 INTER:                 -10.744
 INTRA:                  -1.071
 UNBOUND:                -0.698
  Name = CHEMBL314262
  14 active torsions:
  status: ('A' for Active; 'I' for Inactive)
    1  A    between atoms: C_1  and  C_2
    2  A    between atoms: C_2  and  C_3
    3  A    between atoms: C_3  and  C_4
    4  A    between atoms: C_4  and  C_5
    5  A    between atoms: C_5  and  C_6
    6  A    between atoms: C_6  and  C_7
    7  A    between atoms: C_7  and  C_8
    8  A    between atoms: C_8  and  C_9
    9  A    between atoms: C_9  and  N_10
   10  A    between atoms: C_11  and  C_13
   11  A    between atoms: C_13  and  C_14
   12  A    between atoms: C_17  and  O_18
   13  A    between atoms: C_19  and  O_20
   14  A    between atoms: O_20  and  C_21
                            x       y       z     vdW  Elec       q    Type
                         _______ _______ _______ _____ _____    ______ ____

>  <TORSDO>
F 12

>  <SCORE>
-6.648

>  <RMSD_LB>
0.000

>  <RMSD_UB>
0.000

$$$$
CHEMBL314262
 OpenBabel10172500323D

 24 24  0  0  0  0  0  0  0  0999 V2000
  146.9470  139.4910  154.9210 N   0  0  0  0  0  0  0  0  0  0  0  0
  147.7390  140.5490  154.5200 C   0  0  0  0  0  0  0  0  0  0  0  0
  148.9650  140.4840  154.4580 O   0  0  0  0  0  0  0  0  0  0  0  0
  145.9780  139.6170  155.0420 H   0  0  0  0  0  0  0  0  0  0  0  0
  147.5490  138.1970  155.1620 C   0  0  0  0  0  2  0  0  0  0  0  0
  146.7960  137.0720  154.4580 C   0  0  0  0  0  2  0  0  0  0  0  0
  146.7790  137.3000  152.9470 C   0  0  0  0  0  2  0  0  0  0  0  0
  145.4120  136.9680  152.3480 C   0  0  0  0  0  2  0  0  0  0  0  0
  144.2950  137.2340  153.3560 C   0  0  0  0  0  2  0  0  0  0  0  0
  142.9780  137.5470  152.6470 C   0  0  0  0  0  2  0  0  0  0  0  0
  142.4330  138.9100  153.0730 C   0  0  0  0  0  2  0  0  0  0  0  0
  141.1100  138.3490  155.1400 C   0  0  0  0  0  1  0  0  0  0  0  0
  142.3570  139.0250  154.5940 C   0  0  0  0  0  2  0  0  0  0  0  0
  146.9710  141.7970  154.1160 C   0  0  0  0  0  2  0  0  0  0  0  0
  146.6980  141.8330  152.6320 C   0  0  0  0  0  0  0  0  0  0  0  0
  147.6750  142.3080  151.7500 C   0  0  0  0  0  3  0  0  0  0  0  0
  147.4590  142.2790  150.3730 C   0  0  0  0  0  3  0  0  0  0  0  0
  146.2570  141.7820  149.8590 C   0  0  0  0  0  0  0  0  0  0  0  0
  145.2490  141.3370  150.7230 C   0  0  0  0  0  0  0  0  0  0  0  0
  145.4830  141.3730  152.1070 C   0  0  0  0  0  3  0  0  0  0  0  0
  146.1110  141.7400  148.5000 O   0  0  0  0  0  0  0  0  0  0  0  0
  145.6490  141.0290  148.1010 H   0  0  0  0  0  0  0  0  0  0  0  0
  144.0130  140.8400  150.4030 O   0  0  0  0  0  0  0  0  0  0  0  0
  143.9530  139.6190  149.6790 C   0  0  0  0  0  1  0  0  0  0  0  0
  1  4  1  0  0  0  0
  1  5  1  0  0  0  0
  2  1  1  0  0  0  0
  3  2  2  0  0  0  0
  6  5  1  0  0  0  0
  7  6  1  0  0  0  0
  8  7  1  0  0  0  0
  8  9  1  0  0  0  0
 10 11  1  0  0  0  0
 10  9  1  0  0  0  0
 11 13  1  0  0  0  0
 13 12  1  0  0  0  0
 14  2  1  0  0  0  0
 15 14  1  0  0  0  0
 16 15  2  0  0  0  0
 17 16  1  0  0  0  0
 18 17  2  0  0  0  0
 18 19  1  0  0  0  0
 19 20  2  0  0  0  0
 20 15  1  0  0  0  0
 21 18  1  0  0  0  0
 22 21  1  0  0  0  0
 23 19  1  0  0  0  0
 24 23  1  0  0  0  0
M  END
>  <MODEL>
2

>  <REMARK>
 VINA RESULT:    -6.484      8.064     11.892
 INTER + INTRA:         -11.542
 INTER:                 -10.164
 INTRA:                  -1.378
 UNBOUND:                -0.698
  Name = CHEMBL314262
  14 active torsions:
  status: ('A' for Active; 'I' for Inactive)
    1  A    between atoms: C_1  and  C_2
    2  A    between atoms: C_2  and  C_3
    3  A    between atoms: C_3  and  C_4
    4  A    between atoms: C_4  and  C_5
    5  A    between atoms: C_5  and  C_6
    6  A    between atoms: C_6  and  C_7
    7  A    between atoms: C_7  and  C_8
    8  A    between atoms: C_8  and  C_9
    9  A    between atoms: C_9  and  N_10
   10  A    between atoms: C_11  and  C_13
   11  A    between atoms: C_13  and  C_14
   12  A    between atoms: C_17  and  O_18
   13  A    between atoms: C_19  and  O_20
   14  A    between atoms: O_20  and  C_21
                            x       y       z     vdW  Elec       q    Type
                         _______ _______ _______ _____ _____    ______ ____

>  <TORSDO>
F 12

>  <SCORE>
-6.484

>  <RMSD_LB>
8.064

>  <RMSD_UB>
11.892

$$$$
CHEMBL314262
 OpenBabel10172500323D

 24 24  0  0  0  0  0  0  0  0999 V2000
  147.1360  139.9310  154.9970 N   0  0  0  0  0  0  0  0  0  0  0  0
  147.8350  140.9530  154.3880 C   0  0  0  0  0  0  0  0  0  0  0  0
  149.0540  140.9350  154.2350 O   0  0  0  0  0  0  0  0  0  0  0  0
  146.1740  140.0290  155.1780 H   0  0  0  0  0  0  0  0  0  0  0  0
  147.8260  138.7130  155.3670 C   0  0  0  0  0  2  0  0  0  0  0  0
  147.1730  137.4740  154.7620 C   0  0  0  0  0  2  0  0  0  0  0  0
  147.4700  137.3870  153.2660 C   0  0  0  0  0  2  0  0  0  0  0  0
  146.2030  137.5750  152.4330 C   0  0  0  0  0  2  0  0  0  0  0  0
  145.8890  136.3170  151.6230 C   0  0  0  0  0  2  0  0  0  0  0  0
  144.7150  136.5540  150.6740 C   0  0  0  0  0  2  0  0  0  0  0  0
  144.6890  135.5090  149.5590 C   0  0  0  0  0  2  0  0  0  0  0  0
  142.3010  136.3000  149.6400 C   0  0  0  0  0  1  0  0  0  0  0  0
  143.3030  135.4090  148.9250 C   0  0  0  0  0  2  0  0  0  0  0  0
  146.9700  142.0940  153.8770 C   0  0  0  0  0  2  0  0  0  0  0  0
  146.5890  141.9040  152.4280 C   0  0  0  0  0  0  0  0  0  0  0  0
  147.4820  142.2650  151.4140 C   0  0  0  0  0  3  0  0  0  0  0  0
  147.1670  142.0280  150.0770 C   0  0  0  0  0  3  0  0  0  0  0  0
  145.9480  141.4340  149.7350 C   0  0  0  0  0  0  0  0  0  0  0  0
  145.0210  141.1000  150.7290 C   0  0  0  0  0  0  0  0  0  0  0  0
  145.3540  141.3460  152.0710 C   0  0  0  0  0  3  0  0  0  0  0  0
  145.7050  141.1890  148.4120 O   0  0  0  0  0  0  0  0  0  0  0  0
  146.2090  140.5440  147.9550 H   0  0  0  0  0  0  0  0  0  0  0  0
  143.7820  140.5350  150.5820 O   0  0  0  0  0  0  0  0  0  0  0  0
  143.2640  139.7760  151.6650 C   0  0  0  0  0  1  0  0  0  0  0  0
  1  4  1  0  0  0  0
  1  5  1  0  0  0  0
  2  1  1  0  0  0  0
  3  2  2  0  0  0  0
  6  5  1  0  0  0  0
  7  6  1  0  0  0  0
  8  7  1  0  0  0  0
  9  8  1  0  0  0  0
 10  9  1  0  0  0  0
 11 10  1  0  0  0  0
 13 11  1  0  0  0  0
 13 12  1  0  0  0  0
 14  2  1  0  0  0  0
 15 14  1  0  0  0  0
 16 15  2  0  0  0  0
 17 16  1  0  0  0  0
 18 17  2  0  0  0  0
 18 19  1  0  0  0  0
 19 20  2  0  0  0  0
 20 15  1  0  0  0  0
 21 18  1  0  0  0  0
 22 21  1  0  0  0  0
 23 19  1  0  0  0  0
 23 24  1  0  0  0  0
M  END
>  <MODEL>
3

>  <REMARK>
 VINA RESULT:    -6.355      9.268     11.929
 INTER + INTRA:         -11.325
 INTER:                 -10.124
 INTRA:                  -1.201
 UNBOUND:                -0.698
  Name = CHEMBL314262
  14 active torsions:
  status: ('A' for Active; 'I' for Inactive)
    1  A    between atoms: C_1  and  C_2
    2  A    between atoms: C_2  and  C_3
    3  A    between atoms: C_3  and  C_4
    4  A    between atoms: C_4  and  C_5
    5  A    between atoms: C_5  and  C_6
    6  A    between atoms: C_6  and  C_7
    7  A    between atoms: C_7  and  C_8
    8  A    between atoms: C_8  and  C_9
    9  A    between atoms: C_9  and  N_10
   10  A    between atoms: C_11  and  C_13
   11  A    between atoms: C_13  and  C_14
   12  A    between atoms: C_17  and  O_18
   13  A    between atoms: C_19  and  O_20
   14  A    between atoms: O_20  and  C_21
                            x       y       z     vdW  Elec       q    Type
                         _______ _______ _______ _____ _____    ______ ____

>  <TORSDO>
F 12

>  <SCORE>
-6.355

>  <RMSD_LB>
9.268

>  <RMSD_UB>
11.929

$$$$
CHEMBL314262
 OpenBabel10172500323D

 24 24  0  0  0  0  0  0  0  0999 V2000
  144.5920  139.5440  151.6320 N   0  0  0  0  0  0  0  0  0  0  0  0
  144.4530  138.2250  151.2480 C   0  0  0  0  0  0  0  0  0  0  0  0
  144.8270  137.8010  150.1570 O   0  0  0  0  0  0  0  0  0  0  0  0
  144.1960  139.8570  152.4780 H   0  0  0  0  0  0  0  0  0  0  0  0
  145.3210  140.4640  150.7850 C   0  0  0  0  0  2  0  0  0  0  0  0
  145.1540  141.9130  151.2310 C   0  0  0  0  0  2  0  0  0  0  0  0
  146.1840  142.2680  152.3030 C   0  0  0  0  0  2  0  0  0  0  0  0
  147.6100  142.0430  151.8010 C   0  0  0  0  0  2  0  0  0  0  0  0
  148.5460  141.6850  152.9550 C   0  0  0  0  0  2  0  0  0  0  0  0
  148.5440  140.1790  153.2180 C   0  0  0  0  0  2  0  0  0  0  0  0
  147.9080  139.8560  154.5690 C   0  0  0  0  0  2  0  0  0  0  0  0
  145.5440  139.1590  155.0780 C   0  0  0  0  0  1  0  0  0  0  0  0
  146.8610  138.7520  154.4390 C   0  0  0  0  0  2  0  0  0  0  0  0
  143.8380  137.3200  152.3040 C   0  0  0  0  0  2  0  0  0  0  0  0
  142.3670  137.6040  152.4970 C   0  0  0  0  0  0  0  0  0  0  0  0
  141.4640  137.3730  151.4540 C   0  0  0  0  0  3  0  0  0  0  0  0
  140.0970  137.5660  151.6470 C   0  0  0  0  0  3  0  0  0  0  0  0
  139.6150  138.0010  152.8850 C   0  0  0  0  0  0  0  0  0  0  0  0
  140.5020  138.2770  153.9320 C   0  0  0  0  0  0  0  0  0  0  0  0
  141.8760  138.0780  153.7210 C   0  0  0  0  0  3  0  0  0  0  0  0
  138.2630  138.1380  153.0330 O   0  0  0  0  0  0  0  0  0  0  0  0
  137.8460  137.8480  153.8210 H   0  0  0  0  0  0  0  0  0  0  0  0
  140.2160  138.7250  155.1940 O   0  0  0  0  0  0  0  0  0  0  0  0
  140.0690  137.7590  156.2260 C   0  0  0  0  0  1  0  0  0  0  0  0
  1  4  1  0  0  0  0
  2  1  1  0  0  0  0
  2 14  1  0  0  0  0
  3  2  2  0  0  0  0
  5  6  1  0  0  0  0
  5  1  1  0  0  0  0
  6  7  1  0  0  0  0
  8  7  1  0  0  0  0
  8  9  1  0  0  0  0
  9 10  1  0  0  0  0
 10 11  1  0  0  0  0
 13 11  1  0  0  0  0
 13 12  1  0  0  0  0
 14 15  1  0  0  0  0
 15 20  1  0  0  0  0
 16 17  1  0  0  0  0
 16 15  2  0  0  0  0
 17 18  2  0  0  0  0
 18 21  1  0  0  0  0
 18 19  1  0  0  0  0
 19 23  1  0  0  0  0
 20 19  2  0  0  0  0
 21 22  1  0  0  0  0
 23 24  1  0  0  0  0
M  END
>  <MODEL>
4

>  <REMARK>
 VINA RESULT:    -6.313      6.538     10.100
 INTER + INTRA:         -11.256
 INTER:                  -9.813
 INTRA:                  -1.442
 UNBOUND:                -0.698
  Name = CHEMBL314262
  14 active torsions:
  status: ('A' for Active; 'I' for Inactive)
    1  A    between atoms: C_1  and  C_2
    2  A    between atoms: C_2  and  C_3
    3  A    between atoms: C_3  and  C_4
    4  A    between atoms: C_4  and  C_5
    5  A    between atoms: C_5  and  C_6
    6  A    between atoms: C_6  and  C_7
    7  A    between atoms: C_7  and  C_8
    8  A    between atoms: C_8  and  C_9
    9  A    between atoms: C_9  and  N_10
   10  A    between atoms: C_11  and  C_13
   11  A    between atoms: C_13  and  C_14
   12  A    between atoms: C_17  and  O_18
   13  A    between atoms: C_19  and  O_20
   14  A    between atoms: O_20  and  C_21
                            x       y       z     vdW  Elec       q    Type
                         _______ _______ _______ _____ _____    ______ ____

>  <TORSDO>
F 12

>  <SCORE>
-6.313

>  <RMSD_LB>
6.538

>  <RMSD_UB>
10.100

$$$$
CHEMBL314262
 OpenBabel10172500323D

 24 24  0  0  0  0  0  0  0  0999 V2000
  146.0900  138.9170  150.5940 N   0  0  0  0  0  0  0  0  0  0  0  0
  145.5210  137.6590  150.5970 C   0  0  0  0  0  0  0  0  0  0  0  0
  145.1720  137.0770  149.5730 O   0  0  0  0  0  0  0  0  0  0  0  0
  146.2710  139.3810  151.4430 H   0  0  0  0  0  0  0  0  0  0  0  0
  146.4190  139.5500  149.3340 C   0  0  0  0  0  2  0  0  0  0  0  0
  146.1840  141.0570  149.3690 C   0  0  0  0  0  2  0  0  0  0  0  0
  145.3200  141.4390  150.5700 C   0  0  0  0  0  2  0  0  0  0  0  0
  146.0180  142.4720  151.4550 C   0  0  0  0  0  2  0  0  0  0  0  0
  146.0470  142.0130  152.9120 C   0  0  0  0  0  2  0  0  0  0  0  0
  147.4640  142.0760  153.4800 C   0  0  0  0  0  2  0  0  0  0  0  0
  147.8740  140.7360  154.0890 C   0  0  0  0  0  2  0  0  0  0  0  0
  148.6190  138.3870  153.5760 C   0  0  0  0  0  1  0  0  0  0  0  0
  148.4260  139.7900  153.0250 C   0  0  0  0  0  2  0  0  0  0  0  0
  145.3990  137.0250  151.9740 C   0  0  0  0  0  2  0  0  0  0  0  0
  144.4030  137.7550  152.8420 C   0  0  0  0  0  0  0  0  0  0  0  0
  144.8490  138.6390  153.8300 C   0  0  0  0  0  3  0  0  0  0  0  0
  143.9360  139.3700  154.5890 C   0  0  0  0  0  3  0  0  0  0  0  0
  142.5620  139.2190  154.3750 C   0  0  0  0  0  0  0  0  0  0  0  0
  142.0910  138.3120  153.4190 C   0  0  0  0  0  0  0  0  0  0  0  0
  143.0240  137.5830  152.6640 C   0  0  0  0  0  3  0  0  0  0  0  0
  141.7110  139.9880  155.1200 O   0  0  0  0  0  0  0  0  0  0  0  0
  140.8390  140.1490  154.8160 H   0  0  0  0  0  0  0  0  0  0  0  0
  140.7940  138.0210  153.0890 O   0  0  0  0  0  0  0  0  0  0  0  0
  140.1190  138.9010  152.2020 C   0  0  0  0  0  1  0  0  0  0  0  0
  1  2  1  0  0  0  0
  1  4  1  0  0  0  0
  2 14  1  0  0  0  0
  3  2  2  0  0  0  0
  5  6  1  0  0  0  0
  5  1  1  0  0  0  0
  6  7  1  0  0  0  0
  7  8  1  0  0  0  0
  8  9  1  0  0  0  0
  9 10  1  0  0  0  0
 10 11  1  0  0  0  0
 13 12  1  0  0  0  0
 13 11  1  0  0  0  0
 14 15  1  0  0  0  0
 15 16  1  0  0  0  0
 16 17  2  0  0  0  0
 18 17  1  0  0  0  0
 18 21  1  0  0  0  0
 19 18  2  0  0  0  0
 20 15  2  0  0  0  0
 20 19  1  0  0  0  0
 22 21  1  0  0  0  0
 23 19  1  0  0  0  0
 24 23  1  0  0  0  0
M  END
>  <MODEL>
5

>  <REMARK>
 VINA RESULT:    -6.245      7.297     11.089
 INTER + INTRA:         -11.141
 INTER:                  -9.169
 INTRA:                  -1.972
 UNBOUND:                -0.698
  Name = CHEMBL314262
  14 active torsions:
  status: ('A' for Active; 'I' for Inactive)
    1  A    between atoms: C_1  and  C_2
    2  A    between atoms: C_2  and  C_3
    3  A    between atoms: C_3  and  C_4
    4  A    between atoms: C_4  and  C_5
    5  A    between atoms: C_5  and  C_6
    6  A    between atoms: C_6  and  C_7
    7  A    between atoms: C_7  and  C_8
    8  A    between atoms: C_8  and  C_9
    9  A    between atoms: C_9  and  N_10
   10  A    between atoms: C_11  and  C_13
   11  A    between atoms: C_13  and  C_14
   12  A    between atoms: C_17  and  O_18
   13  A    between atoms: C_19  and  O_20
   14  A    between atoms: O_20  and  C_21
                            x       y       z     vdW  Elec       q    Type
                         _______ _______ _______ _____ _____    ______ ____

>  <TORSDO>
F 12

>  <SCORE>
-6.245

>  <RMSD_LB>
7.297

>  <RMSD_UB>
11.089

$$$$
CHEMBL314262
 OpenBabel10172500323D

 24 24  0  0  0  0  0  0  0  0999 V2000
  143.6460  139.6570  151.1940 N   0  0  0  0  0  0  0  0  0  0  0  0
  143.6430  138.3040  150.9210 C   0  0  0  0  0  0  0  0  0  0  0  0
  143.9960  137.8360  149.8410 O   0  0  0  0  0  0  0  0  0  0  0  0
  143.2700  139.9920  152.0400 H   0  0  0  0  0  0  0  0  0  0  0  0
  144.2050  140.5810  150.2300 C   0  0  0  0  0  2  0  0  0  0  0  0
  145.1950  141.5510  150.8690 C   0  0  0  0  0  2  0  0  0  0  0  0
  146.0340  142.2460  149.7970 C   0  0  0  0  0  2  0  0  0  0  0  0
  147.4110  142.6370  150.3330 C   0  0  0  0  0  2  0  0  0  0  0  0
  148.0360  141.4880  151.1250 C   0  0  0  0  0  2  0  0  0  0  0  0
  148.9620  142.0160  152.2200 C   0  0  0  0  0  2  0  0  0  0  0  0
  148.5740  141.4530  153.5870 C   0  0  0  0  0  2  0  0  0  0  0  0
  146.2220  140.7730  154.1730 C   0  0  0  0  0  1  0  0  0  0  0  0
  147.1880  141.9350  154.0120 C   0  0  0  0  0  2  0  0  0  0  0  0
  143.2070  137.4250  152.0830 C   0  0  0  0  0  2  0  0  0  0  0  0
  141.8960  137.8850  152.6720 C   0  0  0  0  0  0  0  0  0  0  0  0
  141.8430  138.3510  153.9900 C   0  0  0  0  0  3  0  0  0  0  0  0
  140.6510  138.8430  154.5200 C   0  0  0  0  0  3  0  0  0  0  0  0
  139.4910  138.8660  153.7400 C   0  0  0  0  0  0  0  0  0  0  0  0
  139.5080  138.3690  152.4320 C   0  0  0  0  0  0  0  0  0  0  0  0
  140.7170  137.8770  151.9130 C   0  0  0  0  0  3  0  0  0  0  0  0
  138.3580  139.3930  154.2940 O   0  0  0  0  0  0  0  0  0  0  0  0
  138.2370  140.3230  154.3180 H   0  0  0  0  0  0  0  0  0  0  0  0
  138.4750  138.2940  151.5350 O   0  0  0  0  0  0  0  0  0  0  0  0
  138.2250  137.0440  150.9090 C   0  0  0  0  0  1  0  0  0  0  0  0
  1  4  1  0  0  0  0
  2  1  1  0  0  0  0
  2 14  1  0  0  0  0
  3  2  2  0  0  0  0
  5  6  1  0  0  0  0
  5  1  1  0  0  0  0
  7  8  1  0  0  0  0
  7  6  1  0  0  0  0
  8  9  1  0  0  0  0
  9 10  1  0  0  0  0
 10 11  1  0  0  0  0
 11 13  1  0  0  0  0
 13 12  1  0  0  0  0
 14 15  1  0  0  0  0
 15 16  1  0  0  0  0
 16 17  2  0  0  0  0
 18 21  1  0  0  0  0
 18 17  1  0  0  0  0
 19 18  2  0  0  0  0
 20 19  1  0  0  0  0
 20 15  2  0  0  0  0
 21 22  1  0  0  0  0
 23 19  1  0  0  0  0
 24 23  1  0  0  0  0
M  END
>  <MODEL>
6

>  <REMARK>
 VINA RESULT:    -6.233      6.612     10.471
 INTER + INTRA:         -11.122
 INTER:                 -10.117
 INTRA:                  -1.005
 UNBOUND:                -0.698
  Name = CHEMBL314262
  14 active torsions:
  status: ('A' for Active; 'I' for Inactive)
    1  A    between atoms: C_1  and  C_2
    2  A    between atoms: C_2  and  C_3
    3  A    between atoms: C_3  and  C_4
    4  A    between atoms: C_4  and  C_5
    5  A    between atoms: C_5  and  C_6
    6  A    between atoms: C_6  and  C_7
    7  A    between atoms: C_7  and  C_8
    8  A    between atoms: C_8  and  C_9
    9  A    between atoms: C_9  and  N_10
   10  A    between atoms: C_11  and  C_13
   11  A    between atoms: C_13  and  C_14
   12  A    between atoms: C_17  and  O_18
   13  A    between atoms: C_19  and  O_20
   14  A    between atoms: O_20  and  C_21
                            x       y       z     vdW  Elec       q    Type
                         _______ _______ _______ _____ _____    ______ ____

>  <TORSDO>
F 12

>  <SCORE>
-6.233

>  <RMSD_LB>
6.612

>  <RMSD_UB>
10.471

$$$$
CHEMBL314262
 OpenBabel10172500323D

 24 24  0  0  0  0  0  0  0  0999 V2000
  134.1290  135.7110  154.3030 N   0  0  0  0  0  0  0  0  0  0  0  0
  134.3640  134.5980  155.0840 C   0  0  0  0  0  0  0  0  0  0  0  0
  134.3450  133.4520  154.6430 O   0  0  0  0  0  0  0  0  0  0  0  0
  134.0640  136.6020  154.7170 H   0  0  0  0  0  0  0  0  0  0  0  0
  133.9770  135.5620  152.8710 C   0  0  0  0  0  2  0  0  0  0  0  0
  135.3190  135.5680  152.1460 C   0  0  0  0  0  2  0  0  0  0  0  0
  135.4470  134.3410  151.2430 C   0  0  0  0  0  2  0  0  0  0  0  0
  134.0890  133.6850  150.9970 C   0  0  0  0  0  2  0  0  0  0  0  0
  134.0570  132.9870  149.6380 C   0  0  0  0  0  2  0  0  0  0  0  0
  132.7840  133.3390  148.8690 C   0  0  0  0  0  2  0  0  0  0  0  0
  133.0720  134.3540  147.7620 C   0  0  0  0  0  2  0  0  0  0  0  0
  134.2670  133.6150  145.6740 C   0  0  0  0  0  1  0  0  0  0  0  0
  134.4270  134.0900  147.1080 C   0  0  0  0  0  2  0  0  0  0  0  0
  134.6940  134.9040  156.5370 C   0  0  0  0  0  2  0  0  0  0  0  0
  135.9570  135.7200  156.6660 C   0  0  0  0  0  0  0  0  0  0  0  0
  136.8550  135.7980  155.5960 C   0  0  0  0  0  3  0  0  0  0  0  0
  137.9880  136.6060  155.6810 C   0  0  0  0  0  3  0  0  0  0  0  0
  138.2430  137.3400  156.8440 C   0  0  0  0  0  0  0  0  0  0  0  0
  137.3800  137.2490  157.9420 C   0  0  0  0  0  0  0  0  0  0  0  0
  136.2440  136.4310  157.8390 C   0  0  0  0  0  3  0  0  0  0  0  0
  139.3480  138.1460  156.8610 O   0  0  0  0  0  0  0  0  0  0  0  0
  139.4810  138.7420  157.5720 H   0  0  0  0  0  0  0  0  0  0  0  0
  137.4790  137.8750  159.1560 O   0  0  0  0  0  0  0  0  0  0  0  0
  136.2820  138.3310  159.7700 C   0  0  0  0  0  1  0  0  0  0  0  0
  1  4  1  0  0  0  0
  1  2  1  0  0  0  0
  2 14  1  0  0  0  0
  3  2  2  0  0  0  0
  5  1  1  0  0  0  0
  6  5  1  0  0  0  0
  7  6  1  0  0  0  0
  8  7  1  0  0  0  0
  9  8  1  0  0  0  0
 10  9  1  0  0  0  0
 11 10  1  0  0  0  0
 12 13  1  0  0  0  0
 13 11  1  0  0  0  0
 14 15  1  0  0  0  0
 15 20  1  0  0  0  0
 16 17  1  0  0  0  0
 16 15  2  0  0  0  0
 17 18  2  0  0  0  0
 18 21  1  0  0  0  0
 18 19  1  0  0  0  0
 19 23  1  0  0  0  0
 20 19  2  0  0  0  0
 21 22  1  0  0  0  0
 23 24  1  0  0  0  0
M  END
>  <MODEL>
7

>  <REMARK>
 VINA RESULT:    -6.147      2.342      4.109
 INTER + INTRA:         -10.978
 INTER:                 -10.280
 INTRA:                  -0.698
 UNBOUND:                -0.698
  Name = CHEMBL314262
  14 active torsions:
  status: ('A' for Active; 'I' for Inactive)
    1  A    between atoms: C_1  and  C_2
    2  A    between atoms: C_2  and  C_3
    3  A    between atoms: C_3  and  C_4
    4  A    between atoms: C_4  and  C_5
    5  A    between atoms: C_5  and  C_6
    6  A    between atoms: C_6  and  C_7
    7  A    between atoms: C_7  and  C_8
    8  A    between atoms: C_8  and  C_9
    9  A    between atoms: C_9  and  N_10
   10  A    between atoms: C_11  and  C_13
   11  A    between atoms: C_13  and  C_14
   12  A    between atoms: C_17  and  O_18
   13  A    between atoms: C_19  and  O_20
   14  A    between atoms: O_20  and  C_21
                            x       y       z     vdW  Elec       q    Type
                         _______ _______ _______ _____ _____    ______ ____

>  <TORSDO>
F 12

>  <SCORE>
-6.147

>  <RMSD_LB>
2.342

>  <RMSD_UB>
4.109

$$$$
CHEMBL314262
 OpenBabel10172500323D

 24 24  0  0  0  0  0  0  0  0999 V2000
  133.5400  134.5550  152.5950 N   0  0  0  0  0  0  0  0  0  0  0  0
  133.7180  135.5400  151.6450 C   0  0  0  0  0  0  0  0  0  0  0  0
  134.7980  136.0880  151.4380 O   0  0  0  0  0  0  0  0  0  0  0  0
  132.6380  134.2100  152.7870 H   0  0  0  0  0  0  0  0  0  0  0  0
  134.6870  134.0320  153.3070 C   0  0  0  0  0  2  0  0  0  0  0  0
  134.6530  134.3870  154.7900 C   0  0  0  0  0  2  0  0  0  0  0  0
  135.1320  135.8210  155.0110 C   0  0  0  0  0  2  0  0  0  0  0  0
  136.5640  136.0140  154.5120 C   0  0  0  0  0  2  0  0  0  0  0  0
  137.4120  136.7420  155.5550 C   0  0  0  0  0  2  0  0  0  0  0  0
  137.6570  135.8590  156.7780 C   0  0  0  0  0  2  0  0  0  0  0  0
  137.0120  136.4580  158.0280 C   0  0  0  0  0  2  0  0  0  0  0  0
  135.1990  136.1700  159.7500 C   0  0  0  0  0  1  0  0  0  0  0  0
  135.9790  135.5060  158.6280 C   0  0  0  0  0  2  0  0  0  0  0  0
  132.4730  135.8700  150.8350 C   0  0  0  0  0  2  0  0  0  0  0  0
  132.7510  135.8610  149.3510 C   0  0  0  0  0  0  0  0  0  0  0  0
  132.5910  137.0300  148.6000 C   0  0  0  0  0  3  0  0  0  0  0  0
  132.9130  137.0490  147.2430 C   0  0  0  0  0  3  0  0  0  0  0  0
  133.3900  135.8930  146.6170 C   0  0  0  0  0  0  0  0  0  0  0  0
  133.5220  134.7010  147.3380 C   0  0  0  0  0  0  0  0  0  0  0  0
  133.1940  134.6990  148.7030 C   0  0  0  0  0  3  0  0  0  0  0  0
  133.7270  135.9750  145.2940 O   0  0  0  0  0  0  0  0  0  0  0  0
  133.6610  135.2170  144.7460 H   0  0  0  0  0  0  0  0  0  0  0  0
  133.9510  133.4790  146.8910 O   0  0  0  0  0  0  0  0  0  0  0  0
  134.7480  132.6930  147.7660 C   0  0  0  0  0  1  0  0  0  0  0  0
  1  4  1  0  0  0  0
  1  5  1  0  0  0  0
  2  1  1  0  0  0  0
  3  2  2  0  0  0  0
  5  6  1  0  0  0  0
  6  7  1  0  0  0  0
  8  7  1  0  0  0  0
  8  9  1  0  0  0  0
  9 10  1  0  0  0  0
 10 11  1  0  0  0  0
 11 13  1  0  0  0  0
 13 12  1  0  0  0  0
 14  2  1  0  0  0  0
 15 14  1  0  0  0  0
 16 15  2  0  0  0  0
 17 16  1  0  0  0  0
 18 17  2  0  0  0  0
 18 19  1  0  0  0  0
 19 20  2  0  0  0  0
 20 15  1  0  0  0  0
 21 18  1  0  0  0  0
 22 21  1  0  0  0  0
 23 19  1  0  0  0  0
 23 24  1  0  0  0  0
M  END
>  <MODEL>
8

>  <REMARK>
 VINA RESULT:    -6.128      4.109      8.383
 INTER + INTRA:         -10.946
 INTER:                  -9.964
 INTRA:                  -0.982
 UNBOUND:                -0.698
  Name = CHEMBL314262
  14 active torsions:
  status: ('A' for Active; 'I' for Inactive)
    1  A    between atoms: C_1  and  C_2
    2  A    between atoms: C_2  and  C_3
    3  A    between atoms: C_3  and  C_4
    4  A    between atoms: C_4  and  C_5
    5  A    between atoms: C_5  and  C_6
    6  A    between atoms: C_6  and  C_7
    7  A    between atoms: C_7  and  C_8
    8  A    between atoms: C_8  and  C_9
    9  A    between atoms: C_9  and  N_10
   10  A    between atoms: C_11  and  C_13
   11  A    between atoms: C_13  and  C_14
   12  A    between atoms: C_17  and  O_18
   13  A    between atoms: C_19  and  O_20
   14  A    between atoms: O_20  and  C_21
                            x       y       z     vdW  Elec       q    Type
                         _______ _______ _______ _____ _____    ______ ____

>  <TORSDO>
F 12

>  <SCORE>
-6.128

>  <RMSD_LB>
4.109

>  <RMSD_UB>
8.383

$$$$
CHEMBL314262
 OpenBabel10172500323D

 24 24  0  0  0  0  0  0  0  0999 V2000
  146.7290  138.0720  149.2410 N   0  0  0  0  0  0  0  0  0  0  0  0
  145.9700  139.2030  149.0170 C   0  0  0  0  0  0  0  0  0  0  0  0
  144.7640  139.1660  148.7840 O   0  0  0  0  0  0  0  0  0  0  0  0
  147.7060  138.1430  149.3340 H   0  0  0  0  0  0  0  0  0  0  0  0
  146.0810  136.7810  149.3370 C   0  0  0  0  0  2  0  0  0  0  0  0
  146.4910  136.0230  150.5960 C   0  0  0  0  0  2  0  0  0  0  0  0
  146.8590  136.9980  151.7140 C   0  0  0  0  0  2  0  0  0  0  0  0
  145.7640  137.0640  152.7790 C   0  0  0  0  0  2  0  0  0  0  0  0
  145.2060  138.4820  152.9010 C   0  0  0  0  0  2  0  0  0  0  0  0
  143.8660  138.6090  152.1770 C   0  0  0  0  0  2  0  0  0  0  0  0
  143.1150  137.2770  152.1690 C   0  0  0  0  0  2  0  0  0  0  0  0
  141.0790  137.1960  150.6930 C   0  0  0  0  0  1  0  0  0  0  0  0
  142.5760  136.9540  150.7770 C   0  0  0  0  0  2  0  0  0  0  0  0
  146.7370  140.5110  149.1260 C   0  0  0  0  0  2  0  0  0  0  0  0
  146.7290  141.0500  150.5360 C   0  0  0  0  0  0  0  0  0  0  0  0
  145.7120  141.9160  150.9510 C   0  0  0  0  0  3  0  0  0  0  0  0
  145.6570  142.3630  152.2700 C   0  0  0  0  0  3  0  0  0  0  0  0
  146.6280  141.9560  153.1910 C   0  0  0  0  0  0  0  0  0  0  0  0
  147.6770  141.1220  152.7910 C   0  0  0  0  0  0  0  0  0  0  0  0
  147.7170  140.6810  151.4580 C   0  0  0  0  0  3  0  0  0  0  0  0
  146.5070  142.3930  154.4820 O   0  0  0  0  0  0  0  0  0  0  0  0
  147.1760  142.1930  155.1080 H   0  0  0  0  0  0  0  0  0  0  0  0
  148.7170  140.6410  153.5430 O   0  0  0  0  0  0  0  0  0  0  0  0
  148.4750  139.5120  154.3690 C   0  0  0  0  0  1  0  0  0  0  0  0
  1  4  1  0  0  0  0
  1  5  1  0  0  0  0
  2 14  1  0  0  0  0
  2  1  1  0  0  0  0
  3  2  2  0  0  0  0
  5  6  1  0  0  0  0
  6  7  1  0  0  0  0
  7  8  1  0  0  0  0
  8  9  1  0  0  0  0
 10  9  1  0  0  0  0
 11 10  1  0  0  0  0
 12 13  1  0  0  0  0
 13 11  1  0  0  0  0
 14 15  1  0  0  0  0
 15 16  2  0  0  0  0
 15 20  1  0  0  0  0
 16 17  1  0  0  0  0
 17 18  2  0  0  0  0
 18 21  1  0  0  0  0
 19 18  1  0  0  0  0
 19 23  1  0  0  0  0
 20 19  2  0  0  0  0
 21 22  1  0  0  0  0
 23 24  1  0  0  0  0
M  END
>  <MODEL>
9

>  <REMARK>
 VINA RESULT:    -6.094      8.611     11.892
 INTER + INTRA:         -10.889
 INTER:                  -8.611
 INTRA:                  -2.278
 UNBOUND:                -0.698
  Name = CHEMBL314262
  14 active torsions:
  status: ('A' for Active; 'I' for Inactive)
    1  A    between atoms: C_1  and  C_2
    2  A    between atoms: C_2  and  C_3
    3  A    between atoms: C_3  and  C_4
    4  A    between atoms: C_4  and  C_5
    5  A    between atoms: C_5  and  C_6
    6  A    between atoms: C_6  and  C_7
    7  A    between atoms: C_7  and  C_8
    8  A    between atoms: C_8  and  C_9
    9  A    between atoms: C_9  and  N_10
   10  A    between atoms: C_11  and  C_13
   11  A    between atoms: C_13  and  C_14
   12  A    between atoms: C_17  and  O_18
   13  A    between atoms: C_19  and  O_20
   14  A    between atoms: O_20  and  C_21
                            x       y       z     vdW  Elec       q    Type
                         _______ _______ _______ _____ _____    ______ ____

>  <TORSDO>
F 12

>  <SCORE>
-6.094

>  <RMSD_LB>
8.611

>  <RMSD_UB>
11.892

$$$$
