CHEMBL2413174
 OpenBabel10172500023D

 26 27  0  0  0  0  0  0  0  0999 V2000
  146.0520  140.4310  150.4950 N   0  0  0  0  0  0  0  0  0  0  0  0
  146.3900  141.7430  150.7210 C   0  0  0  0  0  0  0  0  0  0  0  0
  145.6390  142.6840  150.4860 O   0  0  0  0  0  0  0  0  0  0  0  0
  146.6870  139.7200  150.7420 H   0  0  0  0  0  0  0  0  0  0  0  0
  144.7840  140.0740  149.9000 C   0  0  0  0  0  2  0  0  0  0  0  0
  145.4200  136.3400  150.4080 C   0  0  0  0  0  0  0  0  0  0  0  0
  144.1740  135.8070  150.0760 C   0  0  0  0  0  3  0  0  0  0  0  0
  143.1340  136.6520  149.6810 C   0  0  0  0  0  3  0  0  0  0  0  0
  143.3330  138.0310  149.6180 C   0  0  0  0  0  3  0  0  0  0  0  0
  144.5790  138.5820  149.9380 C   0  0  0  0  0  0  0  0  0  0  0  0
  145.6170  137.7240  150.3350 C   0  0  0  0  0  3  0  0  0  0  0  0
  147.6000  135.5370  149.9030 C   0  0  0  0  0  1  0  0  0  0  0  0
  146.5140  135.6280  150.8180 O   0  0  0  0  0  0  0  0  0  0  0  0
  147.7740  141.9410  151.3120 C   0  0  0  0  0  2  0  0  0  0  0  0
  147.6740  142.1370  152.8230 C   0  0  0  0  0  2  0  0  0  0  0  0
  148.9420  141.6880  153.5530 C   0  0  0  0  0  2  0  0  0  0  0  0
  148.6230  140.5420  154.5140 C   0  0  0  0  0  2  0  0  0  0  0  0
  148.2400  139.2530  153.7840 C   0  0  0  0  0  2  0  0  0  0  0  0
  147.2440  138.4350  154.5940 C   0  0  0  0  0  0  0  0  0  0  0  0
  147.5760  137.8050  155.5970 O   0  0  0  0  0  0  0  0  0  0  0  0
  145.8150  138.3940  154.1550 C   0  0  0  0  0  0  0  0  0  0  0  0
  145.0810  139.5520  153.8750 C   0  0  0  0  0  3  0  0  0  0  0  0
  143.7450  139.4550  153.4690 C   0  0  0  0  0  3  0  0  0  0  0  0
  143.1390  138.2060  153.3410 C   0  0  0  0  0  3  0  0  0  0  0  0
  143.8650  137.0480  153.6200 C   0  0  0  0  0  3  0  0  0  0  0  0
  145.1960  137.1420  154.0250 C   0  0  0  0  0  3  0  0  0  0  0  0
  1  2  1  0  0  0  0
  1  4  1  0  0  0  0
  2 14  1  0  0  0  0
  3  2  2  0  0  0  0
  5 10  1  0  0  0  0
  5  1  1  0  0  0  0
  6 13  1  0  0  0  0
  7  6  2  0  0  0  0
  8  7  1  0  0  0  0
  9  8  2  0  0  0  0
  9 10  1  0  0  0  0
 10 11  2  0  0  0  0
 11  6  1  0  0  0  0
 12 13  1  0  0  0  0
 14 15  1  0  0  0  0
 15 16  1  0  0  0  0
 16 17  1  0  0  0  0
 18 17  1  0  0  0  0
 18 19  1  0  0  0  0
 19 20  2  0  0  0  0
 21 19  1  0  0  0  0
 22 21  2  0  0  0  0
 23 22  1  0  0  0  0
 24 23  2  0  0  0  0
 24 25  1  0  0  0  0
 25 26  2  0  0  0  0
 26 21  1  0  0  0  0
M  END
>  <MODEL>
1

>  <REMARK>
 VINA RESULT:    -6.872      0.000      0.000
 INTER + INTRA:         -12.256
 INTER:                  -9.386
 INTRA:                  -2.870
 UNBOUND:                -1.366
  Name = CHEMBL2413174
  11 active torsions:
  status: ('A' for Active; 'I' for Inactive)
    1  A    between atoms: C_1  and  O_2
    2  A    between atoms: O_2  and  C_3
    3  A    between atoms: C_7  and  C_8
    4  A    between atoms: C_8  and  N_9
    5  A    between atoms: C_10  and  C_12
    6  A    between atoms: C_12  and  C_13
    7  A    between atoms: C_13  and  C_14
    8  A    between atoms: C_14  and  C_15
    9  A    between atoms: C_15  and  C_16
   10  A    between atoms: C_16  and  C_17
   11  A    between atoms: C_17  and  C_19
                            x       y       z     vdW  Elec       q    Type
                         _______ _______ _______ _____ _____    ______ ____

>  <TORSDO>
F 10

>  <SCORE>
-6.872

>  <RMSD_LB>
0.000

>  <RMSD_UB>
0.000

$$$$
CHEMBL2413174
 OpenBabel10172500023D

 26 27  0  0  0  0  0  0  0  0999 V2000
  145.2110  141.1610  149.5900 N   0  0  0  0  0  0  0  0  0  0  0  0
  145.3040  140.0230  148.8260 C   0  0  0  0  0  0  0  0  0  0  0  0
  146.3670  139.5700  148.4150 O   0  0  0  0  0  0  0  0  0  0  0  0
  144.3290  141.4500  149.9210 H   0  0  0  0  0  0  0  0  0  0  0  0
  146.3820  141.9420  149.9180 C   0  0  0  0  0  2  0  0  0  0  0  0
  148.3100  141.9210  153.2180 C   0  0  0  0  0  0  0  0  0  0  0  0
  147.2770  141.7080  154.1310 C   0  0  0  0  0  3  0  0  0  0  0  0
  145.9630  141.5650  153.6810 C   0  0  0  0  0  3  0  0  0  0  0  0
  145.6740  141.6330  152.3190 C   0  0  0  0  0  3  0  0  0  0  0  0
  146.6990  141.8360  151.3870 C   0  0  0  0  0  0  0  0  0  0  0  0
  148.0160  141.9810  151.8510 C   0  0  0  0  0  3  0  0  0  0  0  0
  150.4020  142.8880  152.6370 C   0  0  0  0  0  1  0  0  0  0  0  0
  149.6320  142.0880  153.5260 O   0  0  0  0  0  0  0  0  0  0  0  0
  143.9730  139.3500  148.5420 C   0  0  0  0  0  2  0  0  0  0  0  0
  142.8660  140.0170  149.3560 C   0  0  0  0  0  2  0  0  0  0  0  0
  142.2360  139.0620  150.3730 C   0  0  0  0  0  2  0  0  0  0  0  0
  143.1150  138.9590  151.6190 C   0  0  0  0  0  2  0  0  0  0  0  0
  143.7140  137.5630  151.8020 C   0  0  0  0  0  2  0  0  0  0  0  0
  144.3600  137.4140  153.1720 C   0  0  0  0  0  0  0  0  0  0  0  0
  143.7220  137.0570  154.1610 O   0  0  0  0  0  0  0  0  0  0  0  0
  145.8180  137.7130  153.3210 C   0  0  0  0  0  0  0  0  0  0  0  0
  146.4590  137.7310  154.5640 C   0  0  0  0  0  3  0  0  0  0  0  0
  147.8260  138.0180  154.6440 C   0  0  0  0  0  3  0  0  0  0  0  0
  148.5560  138.2870  153.4870 C   0  0  0  0  0  3  0  0  0  0  0  0
  147.9230  138.2710  152.2440 C   0  0  0  0  0  3  0  0  0  0  0  0
  146.5600  137.9850  152.1620 C   0  0  0  0  0  3  0  0  0  0  0  0
  1  5  1  0  0  0  0
  1  4  1  0  0  0  0
  2  1  1  0  0  0  0
  3  2  2  0  0  0  0
  5 10  1  0  0  0  0
  6 13  1  0  0  0  0
  6  7  1  0  0  0  0
  8  7  2  0  0  0  0
  9  8  1  0  0  0  0
 10 11  1  0  0  0  0
 10  9  2  0  0  0  0
 11  6  2  0  0  0  0
 12 13  1  0  0  0  0
 14  2  1  0  0  0  0
 14 15  1  0  0  0  0
 15 16  1  0  0  0  0
 16 17  1  0  0  0  0
 17 18  1  0  0  0  0
 18 19  1  0  0  0  0
 19 21  1  0  0  0  0
 19 20  2  0  0  0  0
 21 22  1  0  0  0  0
 22 23  2  0  0  0  0
 24 23  1  0  0  0  0
 25 24  2  0  0  0  0
 26 25  1  0  0  0  0
 26 21  2  0  0  0  0
M  END
>  <MODEL>
2

>  <REMARK>
 VINA RESULT:    -6.834      2.166      5.269
 INTER + INTRA:         -12.195
 INTER:                  -9.182
 INTRA:                  -3.013
 UNBOUND:                -1.366
  Name = CHEMBL2413174
  11 active torsions:
  status: ('A' for Active; 'I' for Inactive)
    1  A    between atoms: C_1  and  O_2
    2  A    between atoms: O_2  and  C_3
    3  A    between atoms: C_7  and  C_8
    4  A    between atoms: C_8  and  N_9
    5  A    between atoms: C_10  and  C_12
    6  A    between atoms: C_12  and  C_13
    7  A    between atoms: C_13  and  C_14
    8  A    between atoms: C_14  and  C_15
    9  A    between atoms: C_15  and  C_16
   10  A    between atoms: C_16  and  C_17
   11  A    between atoms: C_17  and  C_19
                            x       y       z     vdW  Elec       q    Type
                         _______ _______ _______ _____ _____    ______ ____

>  <TORSDO>
F 10

>  <SCORE>
-6.834

>  <RMSD_LB>
2.166

>  <RMSD_UB>
5.269

$$$$
CHEMBL2413174
 OpenBabel10172500023D

 26 27  0  0  0  0  0  0  0  0999 V2000
  145.5880  141.6090  149.4260 N   0  0  0  0  0  0  0  0  0  0  0  0
  145.6530  140.6110  148.4840 C   0  0  0  0  0  0  0  0  0  0  0  0
  146.6660  140.3530  147.8420 O   0  0  0  0  0  0  0  0  0  0  0  0
  144.7540  141.7380  149.9350 H   0  0  0  0  0  0  0  0  0  0  0  0
  146.7170  142.4730  149.6830 C   0  0  0  0  0  2  0  0  0  0  0  0
  147.0180  141.5220  153.3720 C   0  0  0  0  0  0  0  0  0  0  0  0
  148.3980  141.6130  153.5610 C   0  0  0  0  0  3  0  0  0  0  0  0
  149.2260  141.9880  152.5020 C   0  0  0  0  0  3  0  0  0  0  0  0
  148.6830  142.2730  151.2500 C   0  0  0  0  0  3  0  0  0  0  0  0
  147.3000  142.1970  151.0440 C   0  0  0  0  0  0  0  0  0  0  0  0
  146.4770  141.8160  152.1150 C   0  0  0  0  0  3  0  0  0  0  0  0
  145.1960  140.1160  153.9670 C   0  0  0  0  0  1  0  0  0  0  0  0
  146.1010  141.1560  154.3180 O   0  0  0  0  0  0  0  0  0  0  0  0
  144.3640  139.8260  148.3130 C   0  0  0  0  0  2  0  0  0  0  0  0
  144.5110  138.4390  148.9340 C   0  0  0  0  0  2  0  0  0  0  0  0
  143.3860  137.4910  148.5130 C   0  0  0  0  0  2  0  0  0  0  0  0
  143.1580  136.4270  149.5870 C   0  0  0  0  0  2  0  0  0  0  0  0
  141.9490  136.7370  150.4730 C   0  0  0  0  0  2  0  0  0  0  0  0
  142.3820  137.2690  151.8320 C   0  0  0  0  0  0  0  0  0  0  0  0
  143.5640  137.3280  152.1660 O   0  0  0  0  0  0  0  0  0  0  0  0
  141.3350  137.7350  152.7930 C   0  0  0  0  0  0  0  0  0  0  0  0
  141.6220  138.0430  154.1270 C   0  0  0  0  0  3  0  0  0  0  0  0
  140.6030  138.4730  154.9830 C   0  0  0  0  0  3  0  0  0  0  0  0
  139.2960  138.5970  154.5130 C   0  0  0  0  0  3  0  0  0  0  0  0
  139.0030  138.2910  153.1840 C   0  0  0  0  0  3  0  0  0  0  0  0
  140.0180  137.8620  152.3290 C   0  0  0  0  0  3  0  0  0  0  0  0
  1  5  1  0  0  0  0
  1  4  1  0  0  0  0
  2  1  1  0  0  0  0
  3  2  2  0  0  0  0
  5 10  1  0  0  0  0
  6  7  1  0  0  0  0
  6 13  1  0  0  0  0
  8  7  2  0  0  0  0
  9  8  1  0  0  0  0
 10  9  2  0  0  0  0
 10 11  1  0  0  0  0
 11  6  2  0  0  0  0
 12 13  1  0  0  0  0
 14  2  1  0  0  0  0
 14 15  1  0  0  0  0
 16 15  1  0  0  0  0
 16 17  1  0  0  0  0
 17 18  1  0  0  0  0
 18 19  1  0  0  0  0
 19 20  2  0  0  0  0
 19 21  1  0  0  0  0
 21 22  1  0  0  0  0
 22 23  2  0  0  0  0
 24 23  1  0  0  0  0
 25 24  2  0  0  0  0
 26 21  2  0  0  0  0
 26 25  1  0  0  0  0
M  END
>  <MODEL>
3

>  <REMARK>
 VINA RESULT:    -6.558      2.255      5.776
 INTER + INTRA:         -11.758
 INTER:                 -10.646
 INTRA:                  -1.113
 UNBOUND:                -1.366
  Name = CHEMBL2413174
  11 active torsions:
  status: ('A' for Active; 'I' for Inactive)
    1  A    between atoms: C_1  and  O_2
    2  A    between atoms: O_2  and  C_3
    3  A    between atoms: C_7  and  C_8
    4  A    between atoms: C_8  and  N_9
    5  A    between atoms: C_10  and  C_12
    6  A    between atoms: C_12  and  C_13
    7  A    between atoms: C_13  and  C_14
    8  A    between atoms: C_14  and  C_15
    9  A    between atoms: C_15  and  C_16
   10  A    between atoms: C_16  and  C_17
   11  A    between atoms: C_17  and  C_19
                            x       y       z     vdW  Elec       q    Type
                         _______ _______ _______ _____ _____    ______ ____

>  <TORSDO>
F 10

>  <SCORE>
-6.558

>  <RMSD_LB>
2.255

>  <RMSD_UB>
5.776

$$$$
CHEMBL2413174
 OpenBabel10172500023D

 26 27  0  0  0  0  0  0  0  0999 V2000
  143.1140  136.3730  150.1310 N   0  0  0  0  0  0  0  0  0  0  0  0
  144.2350  137.0680  149.7450 C   0  0  0  0  0  0  0  0  0  0  0  0
  144.2260  137.9360  148.8790 O   0  0  0  0  0  0  0  0  0  0  0  0
  143.1820  135.7150  150.8620 H   0  0  0  0  0  0  0  0  0  0  0  0
  141.8380  136.5870  149.4870 C   0  0  0  0  0  2  0  0  0  0  0  0
  138.4880  137.4850  151.0920 C   0  0  0  0  0  0  0  0  0  0  0  0
  138.9010  137.9020  152.3580 C   0  0  0  0  0  3  0  0  0  0  0  0
  140.2570  137.9000  152.6890 C   0  0  0  0  0  3  0  0  0  0  0  0
  141.2080  137.4820  151.7580 C   0  0  0  0  0  3  0  0  0  0  0  0
  140.8140  137.0690  150.4800 C   0  0  0  0  0  0  0  0  0  0  0  0
  139.4480  137.0740  150.1590 C   0  0  0  0  0  3  0  0  0  0  0  0
  136.9730  137.7650  149.2830 C   0  0  0  0  0  1  0  0  0  0  0  0
  137.1960  137.4280  150.6470 O   0  0  0  0  0  0  0  0  0  0  0  0
  145.4970  136.6890  150.4990 C   0  0  0  0  0  2  0  0  0  0  0  0
  145.3560  137.0580  151.9740 C   0  0  0  0  0  2  0  0  0  0  0  0
  146.6570  136.8520  152.7520 C   0  0  0  0  0  2  0  0  0  0  0  0
  146.4310  137.1130  154.2420 C   0  0  0  0  0  2  0  0  0  0  0  0
  146.0620  138.5690  154.5340 C   0  0  0  0  0  2  0  0  0  0  0  0
  147.2380  139.5000  154.2710 C   0  0  0  0  0  0  0  0  0  0  0  0
  148.2700  139.4540  154.9390 O   0  0  0  0  0  0  0  0  0  0  0  0
  147.1340  140.5030  153.1670 C   0  0  0  0  0  0  0  0  0  0  0  0
  145.9680  141.2370  152.9250 C   0  0  0  0  0  3  0  0  0  0  0  0
  145.9260  142.1620  151.8770 C   0  0  0  0  0  3  0  0  0  0  0  0
  147.0450  142.3580  151.0680 C   0  0  0  0  0  3  0  0  0  0  0  0
  148.2100  141.6280  151.3030 C   0  0  0  0  0  3  0  0  0  0  0  0
  148.2540  140.7050  152.3480 C   0  0  0  0  0  3  0  0  0  0  0  0
  1  4  1  0  0  0  0
  2  1  1  0  0  0  0
  2 14  1  0  0  0  0
  3  2  2  0  0  0  0
  5  1  1  0  0  0  0
  5 10  1  0  0  0  0
  6  7  1  0  0  0  0
  7  8  2  0  0  0  0
  9  8  1  0  0  0  0
 10  9  2  0  0  0  0
 11 10  1  0  0  0  0
 11  6  2  0  0  0  0
 12 13  1  0  0  0  0
 13  6  1  0  0  0  0
 14 15  1  0  0  0  0
 15 16  1  0  0  0  0
 16 17  1  0  0  0  0
 17 18  1  0  0  0  0
 19 18  1  0  0  0  0
 19 20  2  0  0  0  0
 21 19  1  0  0  0  0
 22 21  1  0  0  0  0
 23 22  2  0  0  0  0
 24 25  2  0  0  0  0
 24 23  1  0  0  0  0
 25 26  1  0  0  0  0
 26 21  2  0  0  0  0
M  END
>  <MODEL>
4

>  <REMARK>
 VINA RESULT:    -6.520      3.329      5.425
 INTER + INTRA:         -11.698
 INTER:                 -10.402
 INTRA:                  -1.296
 UNBOUND:                -1.366
  Name = CHEMBL2413174
  11 active torsions:
  status: ('A' for Active; 'I' for Inactive)
    1  A    between atoms: C_1  and  O_2
    2  A    between atoms: O_2  and  C_3
    3  A    between atoms: C_7  and  C_8
    4  A    between atoms: C_8  and  N_9
    5  A    between atoms: C_10  and  C_12
    6  A    between atoms: C_12  and  C_13
    7  A    between atoms: C_13  and  C_14
    8  A    between atoms: C_14  and  C_15
    9  A    between atoms: C_15  and  C_16
   10  A    between atoms: C_16  and  C_17
   11  A    between atoms: C_17  and  C_19
                            x       y       z     vdW  Elec       q    Type
                         _______ _______ _______ _____ _____    ______ ____

>  <TORSDO>
F 10

>  <SCORE>
-6.520

>  <RMSD_LB>
3.329

>  <RMSD_UB>
5.425

$$$$
CHEMBL2413174
 OpenBabel10172500023D

 26 27  0  0  0  0  0  0  0  0999 V2000
  146.6000  136.4690  149.8260 N   0  0  0  0  0  0  0  0  0  0  0  0
  147.3870  135.8260  148.9000 C   0  0  0  0  0  0  0  0  0  0  0  0
  147.9530  134.7610  149.1190 O   0  0  0  0  0  0  0  0  0  0  0  0
  146.1420  137.3030  149.5730 H   0  0  0  0  0  0  0  0  0  0  0  0
  146.4340  135.9450  151.1620 C   0  0  0  0  0  2  0  0  0  0  0  0
  145.7430  138.7150  153.7030 C   0  0  0  0  0  0  0  0  0  0  0  0
  147.0340  138.9940  154.1530 C   0  0  0  0  0  3  0  0  0  0  0  0
  148.1240  138.2950  153.6310 C   0  0  0  0  0  3  0  0  0  0  0  0
  147.9310  137.3140  152.6600 C   0  0  0  0  0  3  0  0  0  0  0  0
  146.6450  137.0270  152.1880 C   0  0  0  0  0  0  0  0  0  0  0  0
  145.5560  137.7350  152.7220 C   0  0  0  0  0  3  0  0  0  0  0  0
  143.4080  139.0380  153.4030 C   0  0  0  0  0  1  0  0  0  0  0  0
  144.5940  139.3160  154.1370 O   0  0  0  0  0  0  0  0  0  0  0  0
  147.4850  136.5360  147.5610 C   0  0  0  0  0  2  0  0  0  0  0  0
  147.5480  138.0470  147.7750 C   0  0  0  0  0  2  0  0  0  0  0  0
  146.7410  138.8160  146.7260 C   0  0  0  0  0  2  0  0  0  0  0  0
  145.4250  139.3100  147.3270 C   0  0  0  0  0  2  0  0  0  0  0  0
  145.2740  138.9300  148.8020 C   0  0  0  0  0  2  0  0  0  0  0  0
  144.7350  140.0960  149.6200 C   0  0  0  0  0  0  0  0  0  0  0  0
  143.5680  140.4740  149.5300 O   0  0  0  0  0  0  0  0  0  0  0  0
  145.6540  140.8040  150.5620 C   0  0  0  0  0  0  0  0  0  0  0  0
  145.1930  141.7000  151.5330 C   0  0  0  0  0  3  0  0  0  0  0  0
  146.0990  142.3360  152.3880 C   0  0  0  0  0  3  0  0  0  0  0  0
  147.4650  142.0810  152.2790 C   0  0  0  0  0  3  0  0  0  0  0  0
  147.9330  141.1900  151.3130 C   0  0  0  0  0  3  0  0  0  0  0  0
  147.0310  140.5550  150.4590 C   0  0  0  0  0  3  0  0  0  0  0  0
  1  5  1  0  0  0  0
  2  3  2  0  0  0  0
  2  1  1  0  0  0  0
  4  1  1  0  0  0  0
  5 10  1  0  0  0  0
  6 13  1  0  0  0  0
  6  7  1  0  0  0  0
  8  7  2  0  0  0  0
  9  8  1  0  0  0  0
 10  9  2  0  0  0  0
 10 11  1  0  0  0  0
 11  6  2  0  0  0  0
 12 13  1  0  0  0  0
 14 15  1  0  0  0  0
 14  2  1  0  0  0  0
 16 17  1  0  0  0  0
 16 15  1  0  0  0  0
 17 18  1  0  0  0  0
 18 19  1  0  0  0  0
 19 21  1  0  0  0  0
 20 19  2  0  0  0  0
 21 22  1  0  0  0  0
 22 23  2  0  0  0  0
 24 23  1  0  0  0  0
 25 24  2  0  0  0  0
 26 21  2  0  0  0  0
 26 25  1  0  0  0  0
M  END
>  <MODEL>
5

>  <REMARK>
 VINA RESULT:    -6.319      2.130      5.805
 INTER + INTRA:         -11.379
 INTER:                  -8.735
 INTRA:                  -2.644
 UNBOUND:                -1.366
  Name = CHEMBL2413174
  11 active torsions:
  status: ('A' for Active; 'I' for Inactive)
    1  A    between atoms: C_1  and  O_2
    2  A    between atoms: O_2  and  C_3
    3  A    between atoms: C_7  and  C_8
    4  A    between atoms: C_8  and  N_9
    5  A    between atoms: C_10  and  C_12
    6  A    between atoms: C_12  and  C_13
    7  A    between atoms: C_13  and  C_14
    8  A    between atoms: C_14  and  C_15
    9  A    between atoms: C_15  and  C_16
   10  A    between atoms: C_16  and  C_17
   11  A    between atoms: C_17  and  C_19
                            x       y       z     vdW  Elec       q    Type
                         _______ _______ _______ _____ _____    ______ ____

>  <TORSDO>
F 10

>  <SCORE>
-6.319

>  <RMSD_LB>
2.130

>  <RMSD_UB>
5.805

$$$$
CHEMBL2413174
 OpenBabel10172500023D

 26 27  0  0  0  0  0  0  0  0999 V2000
  144.7780  138.7440  150.5160 N   0  0  0  0  0  0  0  0  0  0  0  0
  143.7030  138.9940  151.3350 C   0  0  0  0  0  0  0  0  0  0  0  0
  143.1920  140.1020  151.4600 O   0  0  0  0  0  0  0  0  0  0  0  0
  145.1160  137.8230  150.4310 H   0  0  0  0  0  0  0  0  0  0  0  0
  145.4230  139.8070  149.7800 C   0  0  0  0  0  2  0  0  0  0  0  0
  148.1680  140.3210  152.3890 C   0  0  0  0  0  0  0  0  0  0  0  0
  148.5630  141.6290  152.1080 C   0  0  0  0  0  3  0  0  0  0  0  0
  147.9390  142.3460  151.0850 C   0  0  0  0  0  3  0  0  0  0  0  0
  146.9200  141.7590  150.3360 C   0  0  0  0  0  3  0  0  0  0  0  0
  146.5020  140.4510  150.6090 C   0  0  0  0  0  0  0  0  0  0  0  0
  147.1380  139.7400  151.6390 C   0  0  0  0  0  3  0  0  0  0  0  0
  148.0760  139.5350  154.6300 C   0  0  0  0  0  1  0  0  0  0  0  0
  148.7020  139.5100  153.3520 O   0  0  0  0  0  0  0  0  0  0  0  0
  143.1750  137.7710  152.0650 C   0  0  0  0  0  2  0  0  0  0  0  0
  141.6650  137.8910  152.2590 C   0  0  0  0  0  2  0  0  0  0  0  0
  140.8800  137.0720  151.2320 C   0  0  0  0  0  2  0  0  0  0  0  0
  140.1150  138.0000  150.2870 C   0  0  0  0  0  2  0  0  0  0  0  0
  138.8510  138.5780  150.9270 C   0  0  0  0  0  2  0  0  0  0  0  0
  137.7670  137.5180  151.0630 C   0  0  0  0  0  0  0  0  0  0  0  0
  137.2180  137.0140  150.0850 O   0  0  0  0  0  0  0  0  0  0  0  0
  137.3540  137.0760  152.4310 C   0  0  0  0  0  0  0  0  0  0  0  0
  137.9550  137.5700  153.5940 C   0  0  0  0  0  3  0  0  0  0  0  0
  137.5300  137.1200  154.8490 C   0  0  0  0  0  3  0  0  0  0  0  0
  136.5060  136.1790  154.9470 C   0  0  0  0  0  3  0  0  0  0  0  0
  135.9030  135.6810  153.7920 C   0  0  0  0  0  3  0  0  0  0  0  0
  136.3260  136.1280  152.5400 C   0  0  0  0  0  3  0  0  0  0  0  0
  1  2  1  0  0  0  0
  2  3  2  0  0  0  0
  2 14  1  0  0  0  0
  4  1  1  0  0  0  0
  5  1  1  0  0  0  0
  5 10  1  0  0  0  0
  6 13  1  0  0  0  0
  7  6  1  0  0  0  0
  8  7  2  0  0  0  0
  9 10  2  0  0  0  0
  9  8  1  0  0  0  0
 10 11  1  0  0  0  0
 11  6  2  0  0  0  0
 13 12  1  0  0  0  0
 14 15  1  0  0  0  0
 16 15  1  0  0  0  0
 17 18  1  0  0  0  0
 17 16  1  0  0  0  0
 18 19  1  0  0  0  0
 19 21  1  0  0  0  0
 20 19  2  0  0  0  0
 21 26  2  0  0  0  0
 21 22  1  0  0  0  0
 22 23  2  0  0  0  0
 23 24  1  0  0  0  0
 25 24  2  0  0  0  0
 26 25  1  0  0  0  0
M  END
>  <MODEL>
6

>  <REMARK>
 VINA RESULT:    -6.263      4.330      7.152
 INTER + INTRA:         -11.291
 INTER:                 -10.217
 INTRA:                  -1.074
 UNBOUND:                -1.366
  Name = CHEMBL2413174
  11 active torsions:
  status: ('A' for Active; 'I' for Inactive)
    1  A    between atoms: C_1  and  O_2
    2  A    between atoms: O_2  and  C_3
    3  A    between atoms: C_7  and  C_8
    4  A    between atoms: C_8  and  N_9
    5  A    between atoms: C_10  and  C_12
    6  A    between atoms: C_12  and  C_13
    7  A    between atoms: C_13  and  C_14
    8  A    between atoms: C_14  and  C_15
    9  A    between atoms: C_15  and  C_16
   10  A    between atoms: C_16  and  C_17
   11  A    between atoms: C_17  and  C_19
                            x       y       z     vdW  Elec       q    Type
                         _______ _______ _______ _____ _____    ______ ____

>  <TORSDO>
F 10

>  <SCORE>
-6.263

>  <RMSD_LB>
4.330

>  <RMSD_UB>
7.152

$$$$
CHEMBL2413174
 OpenBabel10172500023D

 26 27  0  0  0  0  0  0  0  0999 V2000
  144.4420  137.4810  150.0600 N   0  0  0  0  0  0  0  0  0  0  0  0
  144.7590  137.9770  148.8180 C   0  0  0  0  0  0  0  0  0  0  0  0
  144.2160  137.6040  147.7830 O   0  0  0  0  0  0  0  0  0  0  0  0
  144.8890  137.8520  150.8550 H   0  0  0  0  0  0  0  0  0  0  0  0
  143.4660  136.4270  150.2200 C   0  0  0  0  0  2  0  0  0  0  0  0
  140.9730  138.1790  152.5270 C   0  0  0  0  0  0  0  0  0  0  0  0
  139.7940  138.0520  151.7930 C   0  0  0  0  0  3  0  0  0  0  0  0
  139.8030  137.3960  150.5600 C   0  0  0  0  0  3  0  0  0  0  0  0
  140.9880  136.8650  150.0550 C   0  0  0  0  0  3  0  0  0  0  0  0
  142.1800  136.9730  150.7820 C   0  0  0  0  0  0  0  0  0  0  0  0
  142.1590  137.6360  152.0190 C   0  0  0  0  0  3  0  0  0  0  0  0
  141.5070  137.9970  154.8360 C   0  0  0  0  0  1  0  0  0  0  0  0
  141.1030  138.8040  153.7370 O   0  0  0  0  0  0  0  0  0  0  0  0
  145.8330  139.0500  148.8280 C   0  0  0  0  0  2  0  0  0  0  0  0
  145.2700  140.3570  148.2710 C   0  0  0  0  0  2  0  0  0  0  0  0
  146.3160  141.4740  148.2410 C   0  0  0  0  0  2  0  0  0  0  0  0
  146.7380  141.8430  149.6640 C   0  0  0  0  0  2  0  0  0  0  0  0
  145.5490  142.2260  150.5480 C   0  0  0  0  0  2  0  0  0  0  0  0
  145.3610  141.2270  151.6820 C   0  0  0  0  0  0  0  0  0  0  0  0
  144.3030  140.6230  151.8520 O   0  0  0  0  0  0  0  0  0  0  0  0
  146.4970  140.9740  152.6200 C   0  0  0  0  0  0  0  0  0  0  0  0
  147.1080  139.7220  152.7410 C   0  0  0  0  0  3  0  0  0  0  0  0
  148.1680  139.5420  153.6370 C   0  0  0  0  0  3  0  0  0  0  0  0
  148.6210  140.6080  154.4120 C   0  0  0  0  0  3  0  0  0  0  0  0
  148.0150  141.8600  154.2970 C   0  0  0  0  0  3  0  0  0  0  0  0
  146.9590  142.0410  153.4050 C   0  0  0  0  0  3  0  0  0  0  0  0
  1  5  1  0  0  0  0
  1  4  1  0  0  0  0
  2 14  1  0  0  0  0
  2  1  1  0  0  0  0
  3  2  2  0  0  0  0
  5 10  1  0  0  0  0
  6 13  1  0  0  0  0
  7  6  2  0  0  0  0
  8  7  1  0  0  0  0
  9  8  2  0  0  0  0
  9 10  1  0  0  0  0
 10 11  2  0  0  0  0
 11  6  1  0  0  0  0
 13 12  1  0  0  0  0
 15 14  1  0  0  0  0
 16 15  1  0  0  0  0
 16 17  1  0  0  0  0
 17 18  1  0  0  0  0
 18 19  1  0  0  0  0
 19 20  2  0  0  0  0
 19 21  1  0  0  0  0
 21 22  2  0  0  0  0
 21 26  1  0  0  0  0
 22 23  1  0  0  0  0
 23 24  2  0  0  0  0
 25 24  1  0  0  0  0
 26 25  2  0  0  0  0
M  END
>  <MODEL>
7

>  <REMARK>
 VINA RESULT:    -6.260      2.505      5.006
 INTER + INTRA:         -11.286
 INTER:                  -9.835
 INTRA:                  -1.451
 UNBOUND:                -1.366
  Name = CHEMBL2413174
  11 active torsions:
  status: ('A' for Active; 'I' for Inactive)
    1  A    between atoms: C_1  and  O_2
    2  A    between atoms: O_2  and  C_3
    3  A    between atoms: C_7  and  C_8
    4  A    between atoms: C_8  and  N_9
    5  A    between atoms: C_10  and  C_12
    6  A    between atoms: C_12  and  C_13
    7  A    between atoms: C_13  and  C_14
    8  A    between atoms: C_14  and  C_15
    9  A    between atoms: C_15  and  C_16
   10  A    between atoms: C_16  and  C_17
   11  A    between atoms: C_17  and  C_19
                            x       y       z     vdW  Elec       q    Type
                         _______ _______ _______ _____ _____    ______ ____

>  <TORSDO>
F 10

>  <SCORE>
-6.260

>  <RMSD_LB>
2.505

>  <RMSD_UB>
5.006

$$$$
CHEMBL2413174
 OpenBabel10172500023D

 26 27  0  0  0  0  0  0  0  0999 V2000
  136.2400  134.4920  146.1380 N   0  0  0  0  0  0  0  0  0  0  0  0
  134.9790  134.2870  146.6420 C   0  0  0  0  0  0  0  0  0  0  0  0
  133.9530  134.5530  146.0250 O   0  0  0  0  0  0  0  0  0  0  0  0
  137.0230  134.2210  146.6710 H   0  0  0  0  0  0  0  0  0  0  0  0
  136.4410  135.0990  144.8410 C   0  0  0  0  0  2  0  0  0  0  0  0
  138.0600  133.5100  141.7660 C   0  0  0  0  0  0  0  0  0  0  0  0
  137.8320  132.1560  142.0110 C   0  0  0  0  0  3  0  0  0  0  0  0
  137.1500  131.7580  143.1630 C   0  0  0  0  0  3  0  0  0  0  0  0
  136.6940  132.7100  144.0750 C   0  0  0  0  0  3  0  0  0  0  0  0
  136.9050  134.0740  143.8410 C   0  0  0  0  0  0  0  0  0  0  0  0
  137.5940  134.4610  142.6800 C   0  0  0  0  0  3  0  0  0  0  0  0
  139.0020  133.1370  139.6160 C   0  0  0  0  0  1  0  0  0  0  0  0
  138.7210  134.0300  140.6870 O   0  0  0  0  0  0  0  0  0  0  0  0
  134.9520  133.6800  148.0340 C   0  0  0  0  0  2  0  0  0  0  0  0
  134.9030  134.7860  149.0860 C   0  0  0  0  0  2  0  0  0  0  0  0
  134.7840  134.2310  150.5070 C   0  0  0  0  0  2  0  0  0  0  0  0
  135.8190  134.8890  151.4210 C   0  0  0  0  0  2  0  0  0  0  0  0
  135.7730  134.3410  152.8490 C   0  0  0  0  0  2  0  0  0  0  0  0
  135.1660  135.3540  153.8100 C   0  0  0  0  0  0  0  0  0  0  0  0
  134.2610  136.1160  153.4730 O   0  0  0  0  0  0  0  0  0  0  0  0
  135.6880  135.4270  155.2090 C   0  0  0  0  0  0  0  0  0  0  0  0
  134.9250  135.0440  156.3180 C   0  0  0  0  0  3  0  0  0  0  0  0
  135.4640  135.1340  157.6060 C   0  0  0  0  0  3  0  0  0  0  0  0
  136.7630  135.6050  157.7920 C   0  0  0  0  0  3  0  0  0  0  0  0
  137.5290  135.9900  156.6910 C   0  0  0  0  0  3  0  0  0  0  0  0
  136.9940  135.9010  155.4060 C   0  0  0  0  0  3  0  0  0  0  0  0
  1  2  1  0  0  0  0
  1  4  1  0  0  0  0
  2 14  1  0  0  0  0
  3  2  2  0  0  0  0
  5  1  1  0  0  0  0
  6  7  2  0  0  0  0
  6 11  1  0  0  0  0
  7  8  1  0  0  0  0
  8  9  2  0  0  0  0
 10  9  1  0  0  0  0
 10  5  1  0  0  0  0
 11 10  2  0  0  0  0
 12 13  1  0  0  0  0
 13  6  1  0  0  0  0
 14 15  1  0  0  0  0
 15 16  1  0  0  0  0
 16 17  1  0  0  0  0
 17 18  1  0  0  0  0
 18 19  1  0  0  0  0
 19 21  1  0  0  0  0
 20 19  2  0  0  0  0
 21 26  2  0  0  0  0
 21 22  1  0  0  0  0
 22 23  2  0  0  0  0
 23 24  1  0  0  0  0
 25 24  2  0  0  0  0
 26 25  1  0  0  0  0
M  END
>  <MODEL>
8

>  <REMARK>
 VINA RESULT:    -6.206     10.641     12.262
 INTER + INTRA:         -11.200
 INTER:                 -10.651
 INTRA:                  -0.549
 UNBOUND:                -1.366
  Name = CHEMBL2413174
  11 active torsions:
  status: ('A' for Active; 'I' for Inactive)
    1  A    between atoms: C_1  and  O_2
    2  A    between atoms: O_2  and  C_3
    3  A    between atoms: C_7  and  C_8
    4  A    between atoms: C_8  and  N_9
    5  A    between atoms: C_10  and  C_12
    6  A    between atoms: C_12  and  C_13
    7  A    between atoms: C_13  and  C_14
    8  A    between atoms: C_14  and  C_15
    9  A    between atoms: C_15  and  C_16
   10  A    between atoms: C_16  and  C_17
   11  A    between atoms: C_17  and  C_19
                            x       y       z     vdW  Elec       q    Type
                         _______ _______ _______ _____ _____    ______ ____

>  <TORSDO>
F 10

>  <SCORE>
-6.206

>  <RMSD_LB>
10.641

>  <RMSD_UB>
12.262

$$$$
CHEMBL2413174
 OpenBabel10172500023D

 26 27  0  0  0  0  0  0  0  0999 V2000
  137.4410  133.0240  143.2670 N   0  0  0  0  0  0  0  0  0  0  0  0
  136.3800  132.7180  144.0850 C   0  0  0  0  0  0  0  0  0  0  0  0
  135.6570  131.7420  143.9150 O   0  0  0  0  0  0  0  0  0  0  0  0
  138.0070  133.8010  143.4810 H   0  0  0  0  0  0  0  0  0  0  0  0
  137.7420  132.2290  142.0980 C   0  0  0  0  0  2  0  0  0  0  0  0
  138.8950  133.7930  138.8080 C   0  0  0  0  0  0  0  0  0  0  0  0
  137.8270  134.6460  138.5270 C   0  0  0  0  0  3  0  0  0  0  0  0
  136.7420  134.7200  139.4030 C   0  0  0  0  0  3  0  0  0  0  0  0
  136.7170  133.9440  140.5610 C   0  0  0  0  0  3  0  0  0  0  0  0
  137.7840  133.0900  140.8640 C   0  0  0  0  0  0  0  0  0  0  0  0
  138.8690  133.0220  139.9760 C   0  0  0  0  0  3  0  0  0  0  0  0
  141.1260  134.4500  138.3170 C   0  0  0  0  0  1  0  0  0  0  0  0
  140.0080  133.6180  138.0320 O   0  0  0  0  0  0  0  0  0  0  0  0
  136.1820  133.6810  145.2410 C   0  0  0  0  0  2  0  0  0  0  0  0
  134.8160  134.3540  145.1330 C   0  0  0  0  0  2  0  0  0  0  0  0
  134.9100  135.7740  144.5690 C   0  0  0  0  0  2  0  0  0  0  0  0
  133.8440  136.6680  145.2030 C   0  0  0  0  0  2  0  0  0  0  0  0
  134.2680  137.2070  146.5710 C   0  0  0  0  0  2  0  0  0  0  0  0
  133.3360  136.7170  147.6710 C   0  0  0  0  0  0  0  0  0  0  0  0
  132.3270  137.3390  147.9990 O   0  0  0  0  0  0  0  0  0  0  0  0
  133.6590  135.4390  148.3770 C   0  0  0  0  0  0  0  0  0  0  0  0
  134.7900  135.2920  149.1870 C   0  0  0  0  0  3  0  0  0  0  0  0
  135.0440  134.0720  149.8220 C   0  0  0  0  0  3  0  0  0  0  0  0
  134.1720  132.9970  149.6530 C   0  0  0  0  0  3  0  0  0  0  0  0
  133.0430  133.1360  148.8450 C   0  0  0  0  0  3  0  0  0  0  0  0
  132.7880  134.3520  148.2110 C   0  0  0  0  0  3  0  0  0  0  0  0
  1  4  1  0  0  0  0
  1  2  1  0  0  0  0
  2 14  1  0  0  0  0
  3  2  2  0  0  0  0
  5  1  1  0  0  0  0
  6 11  1  0  0  0  0
  7  6  2  0  0  0  0
  7  8  1  0  0  0  0
  8  9  2  0  0  0  0
  9 10  1  0  0  0  0
 10  5  1  0  0  0  0
 11 10  2  0  0  0  0
 13 12  1  0  0  0  0
 13  6  1  0  0  0  0
 15 14  1  0  0  0  0
 16 15  1  0  0  0  0
 16 17  1  0  0  0  0
 17 18  1  0  0  0  0
 18 19  1  0  0  0  0
 19 20  2  0  0  0  0
 19 21  1  0  0  0  0
 21 22  1  0  0  0  0
 22 23  2  0  0  0  0
 24 23  1  0  0  0  0
 25 24  2  0  0  0  0
 26 21  2  0  0  0  0
 26 25  1  0  0  0  0
M  END
>  <MODEL>
9

>  <REMARK>
 VINA RESULT:    -6.145     12.657     14.259
 INTER + INTRA:         -11.103
 INTER:                  -9.737
 INTRA:                  -1.366
 UNBOUND:                -1.366
  Name = CHEMBL2413174
  11 active torsions:
  status: ('A' for Active; 'I' for Inactive)
    1  A    between atoms: C_1  and  O_2
    2  A    between atoms: O_2  and  C_3
    3  A    between atoms: C_7  and  C_8
    4  A    between atoms: C_8  and  N_9
    5  A    between atoms: C_10  and  C_12
    6  A    between atoms: C_12  and  C_13
    7  A    between atoms: C_13  and  C_14
    8  A    between atoms: C_14  and  C_15
    9  A    between atoms: C_15  and  C_16
   10  A    between atoms: C_16  and  C_17
   11  A    between atoms: C_17  and  C_19
                            x       y       z     vdW  Elec       q    Type
                         _______ _______ _______ _____ _____    ______ ____

>  <TORSDO>
F 10

>  <SCORE>
-6.145

>  <RMSD_LB>
12.657

>  <RMSD_UB>
14.259

$$$$
