CHEMBL4297450
 OpenBabel10172500233D

 13 13  0  0  0  0  0  0  0  0999 V2000
  134.8930  134.8570  155.5460 C   0  0  0  0  0  0  0  0  0  0  0  0
  135.7650  135.8580  155.9900 C   0  0  0  0  0  3  0  0  0  0  0  0
  136.5510  136.5890  155.0760 C   0  0  0  0  0  0  0  0  0  0  0  0
  136.4810  136.2690  153.7150 C   0  0  0  0  0  3  0  0  0  0  0  0
  135.6260  135.2650  153.2630 C   0  0  0  0  0  3  0  0  0  0  0  0
  134.8360  134.5690  154.1760 C   0  0  0  0  0  0  0  0  0  0  0  0
  133.8810  134.5610  157.6860 C   0  0  0  0  0  1  0  0  0  0  0  0
  134.0730  134.1120  156.3530 O   0  0  0  0  0  0  0  0  0  0  0  0
  133.9930  133.5850  153.7310 O   0  0  0  0  0  0  0  0  0  0  0  0
  133.2020  133.3990  154.1970 H   0  0  0  0  0  0  0  0  0  0  0  0
  137.5180  137.6520  155.5410 C   0  0  0  0  0  2  0  0  0  0  0  0
  136.8870  138.9170  155.6880 O   0  0  0  0  0  0  0  0  0  0  0  0
  136.7440  139.3110  154.8130 H   0  0  0  0  0  0  0  0  0  0  0  0
  1  2  1  0  0  0  0
  1  8  1  0  0  0  0
  3 11  1  0  0  0  0
  3  2  2  0  0  0  0
  4  3  1  0  0  0  0
  5  4  2  0  0  0  0
  5  6  1  0  0  0  0
  6  1  2  0  0  0  0
  8  7  1  0  0  0  0
  9  6  1  0  0  0  0
  9 10  1  0  0  0  0
 11 12  1  0  0  0  0
 13 12  1  0  0  0  0
M  END
>  <MODEL>
1

>  <REMARK>
 VINA RESULT:    -5.008      0.000      0.000
 INTER + INTRA:          -5.954
 INTER:                  -5.892
 INTRA:                  -0.062
 UNBOUND:                -0.068
  Name = CHEMBL4297450
  5 active torsions:
  status: ('A' for Active; 'I' for Inactive)
    1  A    between atoms: C_1  and  O_2
    2  A    between atoms: O_2  and  C_3
    3  A    between atoms: C_5  and  C_6
    4  A    between atoms: C_6  and  O_7
    5  A    between atoms: C_10  and  O_11
                            x       y       z     vdW  Elec       q    Type
                         _______ _______ _______ _____ _____    ______ ____

>  <TORSDO>
F 4

>  <SCORE>
-5.008

>  <RMSD_LB>
0.000

>  <RMSD_UB>
0.000

$$$$
CHEMBL4297450
 OpenBabel10172500233D

 13 13  0  0  0  0  0  0  0  0999 V2000
  146.1020  141.9030  151.4470 C   0  0  0  0  0  0  0  0  0  0  0  0
  146.6320  141.6930  152.7260 C   0  0  0  0  0  3  0  0  0  0  0  0
  148.0110  141.8500  152.9700 C   0  0  0  0  0  0  0  0  0  0  0  0
  148.8560  142.1770  151.9020 C   0  0  0  0  0  3  0  0  0  0  0  0
  148.3410  142.3750  150.6220 C   0  0  0  0  0  3  0  0  0  0  0  0
  146.9710  142.2410  150.4020 C   0  0  0  0  0  0  0  0  0  0  0  0
  144.1820  140.5110  151.1840 C   0  0  0  0  0  1  0  0  0  0  0  0
  144.7760  141.7990  151.1180 O   0  0  0  0  0  0  0  0  0  0  0  0
  146.4640  142.4400  149.1450 O   0  0  0  0  0  0  0  0  0  0  0  0
  147.0400  142.4710  148.4070 H   0  0  0  0  0  0  0  0  0  0  0  0
  148.6040  141.5990  154.3370 C   0  0  0  0  0  2  0  0  0  0  0  0
  147.9210  140.5640  155.0300 O   0  0  0  0  0  0  0  0  0  0  0  0
  148.1330  140.6140  155.9760 H   0  0  0  0  0  0  0  0  0  0  0  0
  1  2  1  0  0  0  0
  2  3  2  0  0  0  0
  3 11  1  0  0  0  0
  4  3  1  0  0  0  0
  5  4  2  0  0  0  0
  6  5  1  0  0  0  0
  6  1  2  0  0  0  0
  8  7  1  0  0  0  0
  8  1  1  0  0  0  0
  9  6  1  0  0  0  0
 10  9  1  0  0  0  0
 11 12  1  0  0  0  0
 12 13  1  0  0  0  0
M  END
>  <MODEL>
2

>  <REMARK>
 VINA RESULT:    -4.940     11.283     13.664
 INTER + INTRA:          -5.874
 INTER:                  -5.793
 INTRA:                  -0.081
 UNBOUND:                -0.068
  Name = CHEMBL4297450
  5 active torsions:
  status: ('A' for Active; 'I' for Inactive)
    1  A    between atoms: C_1  and  O_2
    2  A    between atoms: O_2  and  C_3
    3  A    between atoms: C_5  and  C_6
    4  A    between atoms: C_6  and  O_7
    5  A    between atoms: C_10  and  O_11
                            x       y       z     vdW  Elec       q    Type
                         _______ _______ _______ _____ _____    ______ ____

>  <TORSDO>
F 4

>  <SCORE>
-4.940

>  <RMSD_LB>
11.283

>  <RMSD_UB>
13.664

$$$$
CHEMBL4297450
 OpenBabel10172500233D

 13 13  0  0  0  0  0  0  0  0999 V2000
  134.7220  135.2370  155.2850 C   0  0  0  0  0  0  0  0  0  0  0  0
  135.6810  136.1970  154.9390 C   0  0  0  0  0  3  0  0  0  0  0  0
  136.5850  136.6930  155.9000 C   0  0  0  0  0  0  0  0  0  0  0  0
  136.4830  136.2440  157.2220 C   0  0  0  0  0  3  0  0  0  0  0  0
  135.5240  135.2980  157.5800 C   0  0  0  0  0  3  0  0  0  0  0  0
  134.6550  134.7980  156.6130 C   0  0  0  0  0  0  0  0  0  0  0  0
  134.3350  133.9200  153.3340 C   0  0  0  0  0  1  0  0  0  0  0  0
  133.8200  134.6780  154.4180 O   0  0  0  0  0  0  0  0  0  0  0  0
  133.7150  133.8650  156.9650 O   0  0  0  0  0  0  0  0  0  0  0  0
  132.8080  134.0980  156.9830 H   0  0  0  0  0  0  0  0  0  0  0  0
  137.6050  137.7510  155.5510 C   0  0  0  0  0  2  0  0  0  0  0  0
  136.9930  138.9830  155.1950 O   0  0  0  0  0  0  0  0  0  0  0  0
  136.0410  138.8470  155.0700 H   0  0  0  0  0  0  0  0  0  0  0  0
  1  6  1  0  0  0  0
  2  1  2  0  0  0  0
  2  3  1  0  0  0  0
  3  4  2  0  0  0  0
  4  5  1  0  0  0  0
  6  9  1  0  0  0  0
  6  5  2  0  0  0  0
  7  8  1  0  0  0  0
  8  1  1  0  0  0  0
  9 10  1  0  0  0  0
 11  3  1  0  0  0  0
 12 11  1  0  0  0  0
 13 12  1  0  0  0  0
M  END
>  <MODEL>
3

>  <REMARK>
 VINA RESULT:    -4.892      1.108      2.588
 INTER + INTRA:          -5.818
 INTER:                  -5.739
 INTRA:                  -0.078
 UNBOUND:                -0.068
  Name = CHEMBL4297450
  5 active torsions:
  status: ('A' for Active; 'I' for Inactive)
    1  A    between atoms: C_1  and  O_2
    2  A    between atoms: O_2  and  C_3
    3  A    between atoms: C_5  and  C_6
    4  A    between atoms: C_6  and  O_7
    5  A    between atoms: C_10  and  O_11
                            x       y       z     vdW  Elec       q    Type
                         _______ _______ _______ _____ _____    ______ ____

>  <TORSDO>
F 4

>  <SCORE>
-4.892

>  <RMSD_LB>
1.108

>  <RMSD_UB>
2.588

$$$$
CHEMBL4297450
 OpenBabel10172500233D

 13 13  0  0  0  0  0  0  0  0999 V2000
  146.8710  141.2450  153.3980 C   0  0  0  0  0  0  0  0  0  0  0  0
  146.3710  141.7050  152.1750 C   0  0  0  0  0  3  0  0  0  0  0  0
  147.2390  142.1910  151.1770 C   0  0  0  0  0  0  0  0  0  0  0  0
  148.6120  142.2510  151.4430 C   0  0  0  0  0  3  0  0  0  0  0  0
  149.1200  141.8070  152.6630 C   0  0  0  0  0  3  0  0  0  0  0  0
  148.2510  141.3040  153.6300 C   0  0  0  0  0  0  0  0  0  0  0  0
  145.0670  139.8340  154.0690 C   0  0  0  0  0  1  0  0  0  0  0  0
  146.1110  140.7320  154.4170 O   0  0  0  0  0  0  0  0  0  0  0  0
  148.7510  140.8650  154.8270 O   0  0  0  0  0  0  0  0  0  0  0  0
  149.1010  141.4780  155.4420 H   0  0  0  0  0  0  0  0  0  0  0  0
  146.7130  142.7190  149.8630 C   0  0  0  0  0  2  0  0  0  0  0  0
  145.8540  141.7870  149.2210 O   0  0  0  0  0  0  0  0  0  0  0  0
  145.0820  141.6190  149.7840 H   0  0  0  0  0  0  0  0  0  0  0  0
  1  6  1  0  0  0  0
  1  8  1  0  0  0  0
  2  1  2  0  0  0  0
  3  4  2  0  0  0  0
  3  2  1  0  0  0  0
  4  5  1  0  0  0  0
  5  6  2  0  0  0  0
  6  9  1  0  0  0  0
  7  8  1  0  0  0  0
  9 10  1  0  0  0  0
 11  3  1  0  0  0  0
 12 13  1  0  0  0  0
 12 11  1  0  0  0  0
M  END
>  <MODEL>
4

>  <REMARK>
 VINA RESULT:    -4.887     11.163     13.663
 INTER + INTRA:          -5.812
 INTER:                  -5.742
 INTRA:                  -0.071
 UNBOUND:                -0.068
  Name = CHEMBL4297450
  5 active torsions:
  status: ('A' for Active; 'I' for Inactive)
    1  A    between atoms: C_1  and  O_2
    2  A    between atoms: O_2  and  C_3
    3  A    between atoms: C_5  and  C_6
    4  A    between atoms: C_6  and  O_7
    5  A    between atoms: C_10  and  O_11
                            x       y       z     vdW  Elec       q    Type
                         _______ _______ _______ _____ _____    ______ ____

>  <TORSDO>
F 4

>  <SCORE>
-4.887

>  <RMSD_LB>
11.163

>  <RMSD_UB>
13.663

$$$$
CHEMBL4297450
 OpenBabel10172500233D

 13 13  0  0  0  0  0  0  0  0999 V2000
  147.5620  139.9960  154.4030 C   0  0  0  0  0  0  0  0  0  0  0  0
  148.5570  140.5750  153.6050 C   0  0  0  0  0  3  0  0  0  0  0  0
  148.2420  141.5950  152.6860 C   0  0  0  0  0  0  0  0  0  0  0  0
  146.9080  141.9940  152.5470 C   0  0  0  0  0  3  0  0  0  0  0  0
  145.9070  141.4160  153.3260 C   0  0  0  0  0  3  0  0  0  0  0  0
  146.2380  140.4260  154.2490 C   0  0  0  0  0  0  0  0  0  0  0  0
  148.0780  137.7140  154.8700 C   0  0  0  0  0  1  0  0  0  0  0  0
  147.7740  139.0190  155.3400 O   0  0  0  0  0  0  0  0  0  0  0  0
  145.2550  139.8600  155.0180 O   0  0  0  0  0  0  0  0  0  0  0  0
  145.1600  140.1090  155.9160 H   0  0  0  0  0  0  0  0  0  0  0  0
  149.2980  142.2100  151.7970 C   0  0  0  0  0  2  0  0  0  0  0  0
  150.4490  142.6020  152.5330 O   0  0  0  0  0  0  0  0  0  0  0  0
  150.3160  143.4950  152.8900 H   0  0  0  0  0  0  0  0  0  0  0  0
  1  8  1  0  0  0  0
  2  1  2  0  0  0  0
  3  2  1  0  0  0  0
  4  3  2  0  0  0  0
  4  5  1  0  0  0  0
  5  6  2  0  0  0  0
  6  1  1  0  0  0  0
  6  9  1  0  0  0  0
  7  8  1  0  0  0  0
  9 10  1  0  0  0  0
 11 12  1  0  0  0  0
 11  3  1  0  0  0  0
 12 13  1  0  0  0  0
M  END
>  <MODEL>
5

>  <REMARK>
 VINA RESULT:    -4.802     11.697     13.413
 INTER + INTRA:          -5.712
 INTER:                  -5.635
 INTRA:                  -0.077
 UNBOUND:                -0.068
  Name = CHEMBL4297450
  5 active torsions:
  status: ('A' for Active; 'I' for Inactive)
    1  A    between atoms: C_1  and  O_2
    2  A    between atoms: O_2  and  C_3
    3  A    between atoms: C_5  and  C_6
    4  A    between atoms: C_6  and  O_7
    5  A    between atoms: C_10  and  O_11
                            x       y       z     vdW  Elec       q    Type
                         _______ _______ _______ _____ _____    ______ ____

>  <TORSDO>
F 4

>  <SCORE>
-4.802

>  <RMSD_LB>
11.697

>  <RMSD_UB>
13.413

$$$$
CHEMBL4297450
 OpenBabel10172500233D

 13 13  0  0  0  0  0  0  0  0999 V2000
  148.0020  140.1610  152.8800 C   0  0  0  0  0  0  0  0  0  0  0  0
  147.8870  140.7870  151.6330 C   0  0  0  0  0  3  0  0  0  0  0  0
  147.0700  141.9230  151.4670 C   0  0  0  0  0  0  0  0  0  0  0  0
  146.3340  142.3940  152.5610 C   0  0  0  0  0  3  0  0  0  0  0  0
  146.4300  141.7710  153.8040 C   0  0  0  0  0  3  0  0  0  0  0  0
  147.2630  140.6650  153.9590 C   0  0  0  0  0  0  0  0  0  0  0  0
  148.3290  137.8050  152.6950 C   0  0  0  0  0  1  0  0  0  0  0  0
  148.7880  139.0710  153.1450 O   0  0  0  0  0  0  0  0  0  0  0  0
  147.3600  140.0550  155.1820 O   0  0  0  0  0  0  0  0  0  0  0  0
  147.7300  140.5170  155.9080 H   0  0  0  0  0  0  0  0  0  0  0  0
  146.9120  142.5920  150.1220 C   0  0  0  0  0  2  0  0  0  0  0  0
  145.9270  141.9520  149.3230 O   0  0  0  0  0  0  0  0  0  0  0  0
  145.7870  142.4640  148.5100 H   0  0  0  0  0  0  0  0  0  0  0  0
  1  8  1  0  0  0  0
  1  6  1  0  0  0  0
  2  1  2  0  0  0  0
  3  2  1  0  0  0  0
  3  4  2  0  0  0  0
  4  5  1  0  0  0  0
  5  6  2  0  0  0  0
  6  9  1  0  0  0  0
  7  8  1  0  0  0  0
  9 10  1  0  0  0  0
 11  3  1  0  0  0  0
 12 11  1  0  0  0  0
 13 12  1  0  0  0  0
M  END
>  <MODEL>
6

>  <REMARK>
 VINA RESULT:    -4.783     12.826     13.578
 INTER + INTRA:          -5.689
 INTER:                  -5.624
 INTRA:                  -0.065
 UNBOUND:                -0.068
  Name = CHEMBL4297450
  5 active torsions:
  status: ('A' for Active; 'I' for Inactive)
    1  A    between atoms: C_1  and  O_2
    2  A    between atoms: O_2  and  C_3
    3  A    between atoms: C_5  and  C_6
    4  A    between atoms: C_6  and  O_7
    5  A    between atoms: C_10  and  O_11
                            x       y       z     vdW  Elec       q    Type
                         _______ _______ _______ _____ _____    ______ ____

>  <TORSDO>
F 4

>  <SCORE>
-4.783

>  <RMSD_LB>
12.826

>  <RMSD_UB>
13.578

$$$$
CHEMBL4297450
 OpenBabel10172500233D

 13 13  0  0  0  0  0  0  0  0999 V2000
  133.0790  134.8030  148.3560 C   0  0  0  0  0  0  0  0  0  0  0  0
  133.3790  135.1330  149.6820 C   0  0  0  0  0  3  0  0  0  0  0  0
  133.9860  134.1950  150.5400 C   0  0  0  0  0  0  0  0  0  0  0  0
  134.2470  132.9060  150.0590 C   0  0  0  0  0  3  0  0  0  0  0  0
  133.9400  132.5620  148.7440 C   0  0  0  0  0  3  0  0  0  0  0  0
  133.3640  133.5090  147.9000 C   0  0  0  0  0  0  0  0  0  0  0  0
  132.7690  137.0410  147.5900 C   0  0  0  0  0  1  0  0  0  0  0  0
  132.5130  135.6530  147.4410 O   0  0  0  0  0  0  0  0  0  0  0  0
  133.0660  133.1720  146.6060 O   0  0  0  0  0  0  0  0  0  0  0  0
  133.2710  133.7630  145.9090 H   0  0  0  0  0  0  0  0  0  0  0  0
  134.2900  134.5250  151.9830 C   0  0  0  0  0  2  0  0  0  0  0  0
  133.1440  134.3820  152.8120 O   0  0  0  0  0  0  0  0  0  0  0  0
  133.1720  135.0470  153.5190 H   0  0  0  0  0  0  0  0  0  0  0  0
  1  2  1  0  0  0  0
  2  3  2  0  0  0  0
  3 11  1  0  0  0  0
  4  3  1  0  0  0  0
  5  4  2  0  0  0  0
  6  1  2  0  0  0  0
  6  5  1  0  0  0  0
  8  7  1  0  0  0  0
  8  1  1  0  0  0  0
  9  6  1  0  0  0  0
 10  9  1  0  0  0  0
 11 12  1  0  0  0  0
 12 13  1  0  0  0  0
M  END
>  <MODEL>
7

>  <REMARK>
 VINA RESULT:    -4.696      5.158      7.121
 INTER + INTRA:          -5.587
 INTER:                  -5.521
 INTRA:                  -0.066
 UNBOUND:                -0.068
  Name = CHEMBL4297450
  5 active torsions:
  status: ('A' for Active; 'I' for Inactive)
    1  A    between atoms: C_1  and  O_2
    2  A    between atoms: O_2  and  C_3
    3  A    between atoms: C_5  and  C_6
    4  A    between atoms: C_6  and  O_7
    5  A    between atoms: C_10  and  O_11
                            x       y       z     vdW  Elec       q    Type
                         _______ _______ _______ _____ _____    ______ ____

>  <TORSDO>
F 4

>  <SCORE>
-4.696

>  <RMSD_LB>
5.158

>  <RMSD_UB>
7.121

$$$$
CHEMBL4297450
 OpenBabel10172500233D

 13 13  0  0  0  0  0  0  0  0999 V2000
  143.6150  137.3170  152.5730 C   0  0  0  0  0  0  0  0  0  0  0  0
  142.9760  137.9070  153.6700 C   0  0  0  0  0  3  0  0  0  0  0  0
  141.5920  138.1720  153.6420 C   0  0  0  0  0  0  0  0  0  0  0  0
  140.8680  137.8770  152.4810 C   0  0  0  0  0  3  0  0  0  0  0  0
  141.4970  137.3010  151.3780 C   0  0  0  0  0  3  0  0  0  0  0  0
  142.8600  137.0210  151.4300 C   0  0  0  0  0  0  0  0  0  0  0  0
  145.5830  136.6180  153.7260 C   0  0  0  0  0  1  0  0  0  0  0  0
  144.9460  136.9990  152.5150 O   0  0  0  0  0  0  0  0  0  0  0  0
  143.4770  136.4510  150.3470 O   0  0  0  0  0  0  0  0  0  0  0  0
  144.4040  136.3130  150.3550 H   0  0  0  0  0  0  0  0  0  0  0  0
  140.8920  138.8360  154.8050 C   0  0  0  0  0  2  0  0  0  0  0  0
  141.5160  140.0590  155.1730 O   0  0  0  0  0  0  0  0  0  0  0  0
  141.3590  140.2320  156.1140 H   0  0  0  0  0  0  0  0  0  0  0  0
  1  2  1  0  0  0  0
  3  2  2  0  0  0  0
  3 11  1  0  0  0  0
  4  3  1  0  0  0  0
  5  6  1  0  0  0  0
  5  4  2  0  0  0  0
  6  1  2  0  0  0  0
  8  1  1  0  0  0  0
  8  7  1  0  0  0  0
  9 10  1  0  0  0  0
  9  6  1  0  0  0  0
 11 12  1  0  0  0  0
 12 13  1  0  0  0  0
M  END
>  <MODEL>
8

>  <REMARK>
 VINA RESULT:    -4.197      6.916      8.367
 INTER + INTRA:          -5.001
 INTER:                  -4.933
 INTRA:                  -0.068
 UNBOUND:                -0.068
  Name = CHEMBL4297450
  5 active torsions:
  status: ('A' for Active; 'I' for Inactive)
    1  A    between atoms: C_1  and  O_2
    2  A    between atoms: O_2  and  C_3
    3  A    between atoms: C_5  and  C_6
    4  A    between atoms: C_6  and  O_7
    5  A    between atoms: C_10  and  O_11
                            x       y       z     vdW  Elec       q    Type
                         _______ _______ _______ _____ _____    ______ ____

>  <TORSDO>
F 4

>  <SCORE>
-4.197

>  <RMSD_LB>
6.916

>  <RMSD_UB>
8.367

$$$$
CHEMBL4297450
 OpenBabel10172500233D

 13 13  0  0  0  0  0  0  0  0999 V2000
  146.1670  139.8480  151.0570 C   0  0  0  0  0  0  0  0  0  0  0  0
  147.2670  139.9740  151.9140 C   0  0  0  0  0  3  0  0  0  0  0  0
  147.5130  141.1790  152.6020 C   0  0  0  0  0  0  0  0  0  0  0  0
  146.6640  142.2700  152.3820 C   0  0  0  0  0  3  0  0  0  0  0  0
  145.5740  142.1610  151.5200 C   0  0  0  0  0  3  0  0  0  0  0  0
  145.3290  140.9540  150.8680 C   0  0  0  0  0  0  0  0  0  0  0  0
  146.7000  138.3010  149.3210 C   0  0  0  0  0  1  0  0  0  0  0  0
  145.8330  138.7130  150.3670 O   0  0  0  0  0  0  0  0  0  0  0  0
  144.2550  140.8460  150.0240 O   0  0  0  0  0  0  0  0  0  0  0  0
  143.8970  141.6120  149.6210 H   0  0  0  0  0  0  0  0  0  0  0  0
  148.7110  141.3410  153.5080 C   0  0  0  0  0  2  0  0  0  0  0  0
  149.3270  140.0940  153.8010 O   0  0  0  0  0  0  0  0  0  0  0  0
  148.9600  139.7370  154.6250 H   0  0  0  0  0  0  0  0  0  0  0  0
  1  2  1  0  0  0  0
  2  3  2  0  0  0  0
  3 11  1  0  0  0  0
  4  3  1  0  0  0  0
  5  4  2  0  0  0  0
  6  1  2  0  0  0  0
  6  5  1  0  0  0  0
  7  8  1  0  0  0  0
  8  1  1  0  0  0  0
  9  6  1  0  0  0  0
 10  9  1  0  0  0  0
 11 12  1  0  0  0  0
 12 13  1  0  0  0  0
M  END
>  <MODEL>
9

>  <REMARK>
 VINA RESULT:    -4.164     12.026     12.991
 INTER + INTRA:          -4.962
 INTER:                  -4.879
 INTRA:                  -0.082
 UNBOUND:                -0.068
  Name = CHEMBL4297450
  5 active torsions:
  status: ('A' for Active; 'I' for Inactive)
    1  A    between atoms: C_1  and  O_2
    2  A    between atoms: O_2  and  C_3
    3  A    between atoms: C_5  and  C_6
    4  A    between atoms: C_6  and  O_7
    5  A    between atoms: C_10  and  O_11
                            x       y       z     vdW  Elec       q    Type
                         _______ _______ _______ _____ _____    ______ ____

>  <TORSDO>
F 4

>  <SCORE>
-4.164

>  <RMSD_LB>
12.026

>  <RMSD_UB>
12.991

$$$$
