CHEMBL4464670
 OpenBabel10172500213D

 27 28  0  0  0  0  0  0  0  0999 V2000
  134.4110  133.8170  154.0220 C   0  0  0  0  0  0  0  0  0  0  0  0
  134.2190  132.6520  154.3450 O   0  0  0  0  0  0  0  0  0  0  0  0
  134.6910  134.8370  154.8990 N   0  0  0  0  0  0  0  0  0  0  0  0
  134.8500  135.7400  154.5400 H   0  0  0  0  0  0  0  0  0  0  0  0
  133.2100  134.7780  152.0900 C   0  0  0  0  0  3  0  0  0  0  0  0
  134.3460  134.2780  152.6060 C   0  0  0  0  0  3  0  0  0  0  0  0
  132.7610  136.0690  148.0030 C   0  0  0  0  0  0  0  0  0  0  0  0
  132.8310  137.0090  149.0290 C   0  0  0  0  0  3  0  0  0  0  0  0
  132.9740  136.5990  150.3630 C   0  0  0  0  0  3  0  0  0  0  0  0
  133.0650  135.2420  150.6980 C   0  0  0  0  0  0  0  0  0  0  0  0
  132.9690  134.2970  149.6680 C   0  0  0  0  0  3  0  0  0  0  0  0
  132.8250  134.7110  148.3370 C   0  0  0  0  0  0  0  0  0  0  0  0
  133.1130  137.6300  146.2320 C   0  0  0  0  0  1  0  0  0  0  0  0
  132.6300  136.3670  146.6700 O   0  0  0  0  0  0  0  0  0  0  0  0
  132.7470  133.7750  147.3390 O   0  0  0  0  0  0  0  0  0  0  0  0
  132.0620  133.8250  146.7030 H   0  0  0  0  0  0  0  0  0  0  0  0
  134.7620  134.6370  156.3300 C   0  0  0  0  0  2  0  0  0  0  0  0
  135.6440  135.6480  157.0210 C   0  0  0  0  0  0  0  0  0  0  0  0
  135.9370  135.5000  158.3790 C   0  0  0  0  0  3  0  0  0  0  0  0
  136.7250  136.4390  159.0450 C   0  0  0  0  0  3  0  0  0  0  0  0
  137.2410  137.5420  158.3570 C   0  0  0  0  0  0  0  0  0  0  0  0
  136.9720  137.7140  156.9960 C   0  0  0  0  0  0  0  0  0  0  0  0
  136.1750  136.7560  156.3380 C   0  0  0  0  0  3  0  0  0  0  0  0
  138.0080  138.4330  159.0570 O   0  0  0  0  0  0  0  0  0  0  0  0
  138.8760  138.6350  158.7650 H   0  0  0  0  0  0  0  0  0  0  0  0
  137.3830  138.7300  156.1710 O   0  0  0  0  0  0  0  0  0  0  0  0
  138.3770  138.4420  155.1970 C   0  0  0  0  0  1  0  0  0  0  0  0
  1  2  2  0  0  0  0
  1  3  1  0  0  0  0
  3 17  1  0  0  0  0
  4  3  1  0  0  0  0
  5  6  2  0  0  0  0
  6  1  1  0  0  0  0
  7 12  2  0  0  0  0
  7  8  1  0  0  0  0
  8  9  2  0  0  0  0
  9 10  1  0  0  0  0
 10  5  1  0  0  0  0
 11 10  2  0  0  0  0
 12 11  1  0  0  0  0
 13 14  1  0  0  0  0
 14  7  1  0  0  0  0
 15 12  1  0  0  0  0
 16 15  1  0  0  0  0
 17 18  1  0  0  0  0
 18 19  1  0  0  0  0
 19 20  2  0  0  0  0
 21 20  1  0  0  0  0
 21 24  1  0  0  0  0
 22 21  2  0  0  0  0
 23 22  1  0  0  0  0
 23 18  2  0  0  0  0
 25 24  1  0  0  0  0
 26 22  1  0  0  0  0
 27 26  1  0  0  0  0
M  END
>  <MODEL>
1

>  <REMARK>
 VINA RESULT:    -7.644      0.000      0.000
 INTER + INTRA:         -11.320
 INTER:                 -10.799
 INTRA:                  -0.522
 UNBOUND:                -0.548
  Name = CHEMBL4464670
  10 active torsions:
  status: ('A' for Active; 'I' for Inactive)
    1  A    between atoms: C_1  and  O_2
    2  A    between atoms: O_2  and  C_3
    3  A    between atoms: C_6  and  C_7
    4  A    between atoms: C_8  and  C_9
    5  A    between atoms: N_11  and  C_12
    6  A    between atoms: C_12  and  C_13
    7  A    between atoms: C_16  and  O_17
    8  A    between atoms: C_18  and  O_19
    9  A    between atoms: O_19  and  C_20
   10  A    between atoms: C_23  and  O_24
                            x       y       z     vdW  Elec       q    Type
                         _______ _______ _______ _____ _____    ______ ____

>  <TORSDO>
F 8

>  <SCORE>
-7.644

>  <RMSD_LB>
0.000

>  <RMSD_UB>
0.000

$$$$
CHEMBL4464670
 OpenBabel10172500213D

 27 28  0  0  0  0  0  0  0  0999 V2000
  134.0210  135.1140  154.2260 C   0  0  0  0  0  0  0  0  0  0  0  0
  133.1840  135.1870  155.1160 O   0  0  0  0  0  0  0  0  0  0  0  0
  135.3650  135.3440  154.3950 N   0  0  0  0  0  0  0  0  0  0  0  0
  135.9640  135.2420  153.6200 H   0  0  0  0  0  0  0  0  0  0  0  0
  134.6190  134.6560  151.8740 C   0  0  0  0  0  3  0  0  0  0  0  0
  133.6690  134.7730  152.8190 C   0  0  0  0  0  3  0  0  0  0  0  0
  133.8140  133.6490  147.7610 C   0  0  0  0  0  0  0  0  0  0  0  0
  133.7000  134.9690  148.1930 C   0  0  0  0  0  3  0  0  0  0  0  0
  133.9560  135.3060  149.5300 C   0  0  0  0  0  3  0  0  0  0  0  0
  134.3470  134.3350  150.4610 C   0  0  0  0  0  0  0  0  0  0  0  0
  134.4370  133.0040  150.0320 C   0  0  0  0  0  3  0  0  0  0  0  0
  134.1790  132.6710  148.6950 C   0  0  0  0  0  0  0  0  0  0  0  0
  134.6210  133.4550  145.5240 C   0  0  0  0  0  1  0  0  0  0  0  0
  133.5940  133.2180  146.4780 O   0  0  0  0  0  0  0  0  0  0  0  0
  134.2860  131.3680  148.2870 O   0  0  0  0  0  0  0  0  0  0  0  0
  134.9030  131.1330  147.6220 H   0  0  0  0  0  0  0  0  0  0  0  0
  135.9360  135.7330  155.6670 C   0  0  0  0  0  2  0  0  0  0  0  0
  137.1760  136.5800  155.5190 C   0  0  0  0  0  0  0  0  0  0  0  0
  138.0190  136.7730  156.6160 C   0  0  0  0  0  3  0  0  0  0  0  0
  139.1540  137.5770  156.5090 C   0  0  0  0  0  3  0  0  0  0  0  0
  139.4690  138.1970  155.2960 C   0  0  0  0  0  0  0  0  0  0  0  0
  138.6490  138.0170  154.1780 C   0  0  0  0  0  0  0  0  0  0  0  0
  137.5070  137.2020  154.3020 C   0  0  0  0  0  3  0  0  0  0  0  0
  140.5940  138.9750  155.2460 O   0  0  0  0  0  0  0  0  0  0  0  0
  140.7870  139.5640  155.9500 H   0  0  0  0  0  0  0  0  0  0  0  0
  138.7970  138.5490  152.9220 O   0  0  0  0  0  0  0  0  0  0  0  0
  139.5740  137.8280  151.9750 C   0  0  0  0  0  1  0  0  0  0  0  0
  1  3  1  0  0  0  0
  1  2  2  0  0  0  0
  3 17  1  0  0  0  0
  4  3  1  0  0  0  0
  5  6  2  0  0  0  0
  6  1  1  0  0  0  0
  7  8  2  0  0  0  0
  7 12  1  0  0  0  0
  8  9  1  0  0  0  0
  9 10  2  0  0  0  0
 10  5  1  0  0  0  0
 11 10  1  0  0  0  0
 12 11  2  0  0  0  0
 13 14  1  0  0  0  0
 14  7  1  0  0  0  0
 15 12  1  0  0  0  0
 16 15  1  0  0  0  0
 18 17  1  0  0  0  0
 18 19  1  0  0  0  0
 20 19  2  0  0  0  0
 21 20  1  0  0  0  0
 22 23  1  0  0  0  0
 22 21  2  0  0  0  0
 23 18  2  0  0  0  0
 24 21  1  0  0  0  0
 24 25  1  0  0  0  0
 26 22  1  0  0  0  0
 27 26  1  0  0  0  0
M  END
>  <MODEL>
2

>  <REMARK>
 VINA RESULT:    -7.433      2.172      2.826
 INTER + INTRA:         -11.024
 INTER:                 -10.375
 INTRA:                  -0.648
 UNBOUND:                -0.548
  Name = CHEMBL4464670
  10 active torsions:
  status: ('A' for Active; 'I' for Inactive)
    1  A    between atoms: C_1  and  O_2
    2  A    between atoms: O_2  and  C_3
    3  A    between atoms: C_6  and  C_7
    4  A    between atoms: C_8  and  C_9
    5  A    between atoms: N_11  and  C_12
    6  A    between atoms: C_12  and  C_13
    7  A    between atoms: C_16  and  O_17
    8  A    between atoms: C_18  and  O_19
    9  A    between atoms: O_19  and  C_20
   10  A    between atoms: C_23  and  O_24
                            x       y       z     vdW  Elec       q    Type
                         _______ _______ _______ _____ _____    ______ ____

>  <TORSDO>
F 8

>  <SCORE>
-7.433

>  <RMSD_LB>
2.172

>  <RMSD_UB>
2.826

$$$$
CHEMBL4464670
 OpenBabel10172500213D

 27 28  0  0  0  0  0  0  0  0999 V2000
  139.5670  138.4870  154.8770 C   0  0  0  0  0  0  0  0  0  0  0  0
  139.2150  139.5870  154.4730 O   0  0  0  0  0  0  0  0  0  0  0  0
  138.7300  137.5540  155.4380 N   0  0  0  0  0  0  0  0  0  0  0  0
  139.1050  136.6870  155.7160 H   0  0  0  0  0  0  0  0  0  0  0  0
  141.9670  138.8550  154.4250 C   0  0  0  0  0  3  0  0  0  0  0  0
  140.9840  138.0270  154.8180 C   0  0  0  0  0  3  0  0  0  0  0  0
  146.1330  137.7760  154.1970 C   0  0  0  0  0  0  0  0  0  0  0  0
  145.1570  136.8970  153.7310 C   0  0  0  0  0  3  0  0  0  0  0  0
  143.7980  137.2380  153.8040 C   0  0  0  0  0  3  0  0  0  0  0  0
  143.3870  138.4700  154.3290 C   0  0  0  0  0  0  0  0  0  0  0  0
  144.3670  139.3410  154.8200 C   0  0  0  0  0  3  0  0  0  0  0  0
  145.7240  138.9970  154.7460 C   0  0  0  0  0  0  0  0  0  0  0  0
  148.1180  137.5480  152.8900 C   0  0  0  0  0  1  0  0  0  0  0  0
  147.4850  137.5420  154.1630 O   0  0  0  0  0  0  0  0  0  0  0  0
  146.6720  139.8670  155.2170 O   0  0  0  0  0  0  0  0  0  0  0  0
  146.8620  139.9030  156.1340 H   0  0  0  0  0  0  0  0  0  0  0  0
  137.3170  137.7950  155.6390 C   0  0  0  0  0  2  0  0  0  0  0  0
  136.4560  136.6360  155.2010 C   0  0  0  0  0  0  0  0  0  0  0  0
  136.6440  136.0690  153.9380 C   0  0  0  0  0  3  0  0  0  0  0  0
  135.8390  135.0170  153.5020 C   0  0  0  0  0  3  0  0  0  0  0  0
  134.8330  134.5080  154.3290 C   0  0  0  0  0  0  0  0  0  0  0  0
  134.6240  135.0480  155.6010 C   0  0  0  0  0  0  0  0  0  0  0  0
  135.4460  136.1110  156.0270 C   0  0  0  0  0  3  0  0  0  0  0  0
  134.0720  133.4760  153.8510 O   0  0  0  0  0  0  0  0  0  0  0  0
  134.3820  132.5940  153.9220 H   0  0  0  0  0  0  0  0  0  0  0  0
  133.6880  134.6840  156.5350 O   0  0  0  0  0  0  0  0  0  0  0  0
  134.0840  134.6400  157.8990 C   0  0  0  0  0  1  0  0  0  0  0  0
  1  3  1  0  0  0  0
  2  1  2  0  0  0  0
  3 17  1  0  0  0  0
  3  4  1  0  0  0  0
  5  6  2  0  0  0  0
  6  1  1  0  0  0  0
  7 12  1  0  0  0  0
  8  9  1  0  0  0  0
  8  7  2  0  0  0  0
  9 10  2  0  0  0  0
 10  5  1  0  0  0  0
 10 11  1  0  0  0  0
 12 11  2  0  0  0  0
 12 15  1  0  0  0  0
 13 14  1  0  0  0  0
 14  7  1  0  0  0  0
 15 16  1  0  0  0  0
 18 17  1  0  0  0  0
 18 23  1  0  0  0  0
 19 18  2  0  0  0  0
 20 19  1  0  0  0  0
 20 21  2  0  0  0  0
 21 22  1  0  0  0  0
 22 23  2  0  0  0  0
 22 26  1  0  0  0  0
 24 25  1  0  0  0  0
 24 21  1  0  0  0  0
 26 27  1  0  0  0  0
M  END
>  <MODEL>
3

>  <REMARK>
 VINA RESULT:    -7.383      5.168     10.146
 INTER + INTRA:         -10.952
 INTER:                 -10.465
 INTRA:                  -0.487
 UNBOUND:                -0.548
  Name = CHEMBL4464670
  10 active torsions:
  status: ('A' for Active; 'I' for Inactive)
    1  A    between atoms: C_1  and  O_2
    2  A    between atoms: O_2  and  C_3
    3  A    between atoms: C_6  and  C_7
    4  A    between atoms: C_8  and  C_9
    5  A    between atoms: N_11  and  C_12
    6  A    between atoms: C_12  and  C_13
    7  A    between atoms: C_16  and  O_17
    8  A    between atoms: C_18  and  O_19
    9  A    between atoms: O_19  and  C_20
   10  A    between atoms: C_23  and  O_24
                            x       y       z     vdW  Elec       q    Type
                         _______ _______ _______ _____ _____    ______ ____

>  <TORSDO>
F 8

>  <SCORE>
-7.383

>  <RMSD_LB>
5.168

>  <RMSD_UB>
10.146

$$$$
CHEMBL4464670
 OpenBabel10172500213D

 27 28  0  0  0  0  0  0  0  0999 V2000
  142.3780  138.3820  151.5400 C   0  0  0  0  0  0  0  0  0  0  0  0
  142.8460  137.6940  150.6420 O   0  0  0  0  0  0  0  0  0  0  0  0
  142.8390  139.6270  151.8930 N   0  0  0  0  0  0  0  0  0  0  0  0
  142.3830  140.1120  152.6190 H   0  0  0  0  0  0  0  0  0  0  0  0
  141.0010  138.4830  153.5870 C   0  0  0  0  0  3  0  0  0  0  0  0
  141.2360  137.9300  152.3840 C   0  0  0  0  0  3  0  0  0  0  0  0
  137.7510  137.2810  156.1510 C   0  0  0  0  0  0  0  0  0  0  0  0
  139.0030  137.5640  156.6940 C   0  0  0  0  0  3  0  0  0  0  0  0
  140.0680  137.9520  155.8680 C   0  0  0  0  0  3  0  0  0  0  0  0
  139.9010  138.0820  154.4830 C   0  0  0  0  0  0  0  0  0  0  0  0
  138.6490  137.7740  153.9350 C   0  0  0  0  0  3  0  0  0  0  0  0
  137.5880  137.3850  154.7640 C   0  0  0  0  0  0  0  0  0  0  0  0
  136.5560  137.3570  158.2150 C   0  0  0  0  0  1  0  0  0  0  0  0
  136.6470  136.9030  156.8710 O   0  0  0  0  0  0  0  0  0  0  0  0
  136.3650  137.1010  154.2140 O   0  0  0  0  0  0  0  0  0  0  0  0
  136.2270  137.2130  153.2950 H   0  0  0  0  0  0  0  0  0  0  0  0
  143.9690  140.2540  151.2420 C   0  0  0  0  0  2  0  0  0  0  0  0
  145.0370  140.6910  152.2140 C   0  0  0  0  0  0  0  0  0  0  0  0
  145.6800  141.9180  152.0330 C   0  0  0  0  0  3  0  0  0  0  0  0
  146.6920  142.3280  152.9020 C   0  0  0  0  0  3  0  0  0  0  0  0
  147.0720  141.5160  153.9750 C   0  0  0  0  0  0  0  0  0  0  0  0
  146.4430  140.2860  154.1880 C   0  0  0  0  0  0  0  0  0  0  0  0
  145.4230  139.8870  153.3020 C   0  0  0  0  0  3  0  0  0  0  0  0
  148.0700  141.9660  154.7970 O   0  0  0  0  0  0  0  0  0  0  0  0
  148.4200  142.8280  154.6800 H   0  0  0  0  0  0  0  0  0  0  0  0
  146.6890  139.3660  155.1740 O   0  0  0  0  0  0  0  0  0  0  0  0
  147.4830  138.2320  154.8510 C   0  0  0  0  0  1  0  0  0  0  0  0
  1  3  1  0  0  0  0
  1  6  1  0  0  0  0
  2  1  2  0  0  0  0
  3  4  1  0  0  0  0
  5 10  1  0  0  0  0
  6  5  2  0  0  0  0
  7  8  1  0  0  0  0
  7 14  1  0  0  0  0
  9  8  2  0  0  0  0
 10  9  1  0  0  0  0
 11 10  2  0  0  0  0
 11 12  1  0  0  0  0
 12  7  2  0  0  0  0
 14 13  1  0  0  0  0
 15 12  1  0  0  0  0
 16 15  1  0  0  0  0
 17  3  1  0  0  0  0
 17 18  1  0  0  0  0
 18 23  1  0  0  0  0
 19 18  2  0  0  0  0
 19 20  1  0  0  0  0
 20 21  2  0  0  0  0
 21 22  1  0  0  0  0
 21 24  1  0  0  0  0
 22 26  1  0  0  0  0
 23 22  2  0  0  0  0
 25 24  1  0  0  0  0
 27 26  1  0  0  0  0
M  END
>  <MODEL>
4

>  <REMARK>
 VINA RESULT:    -7.364      6.536     10.273
 INTER + INTRA:         -10.926
 INTER:                 -10.269
 INTRA:                  -0.657
 UNBOUND:                -0.548
  Name = CHEMBL4464670
  10 active torsions:
  status: ('A' for Active; 'I' for Inactive)
    1  A    between atoms: C_1  and  O_2
    2  A    between atoms: O_2  and  C_3
    3  A    between atoms: C_6  and  C_7
    4  A    between atoms: C_8  and  C_9
    5  A    between atoms: N_11  and  C_12
    6  A    between atoms: C_12  and  C_13
    7  A    between atoms: C_16  and  O_17
    8  A    between atoms: C_18  and  O_19
    9  A    between atoms: O_19  and  C_20
   10  A    between atoms: C_23  and  O_24
                            x       y       z     vdW  Elec       q    Type
                         _______ _______ _______ _____ _____    ______ ____

>  <TORSDO>
F 8

>  <SCORE>
-7.364

>  <RMSD_LB>
6.536

>  <RMSD_UB>
10.273

$$$$
CHEMBL4464670
 OpenBabel10172500213D

 27 28  0  0  0  0  0  0  0  0999 V2000
  137.3060  136.9060  152.2590 C   0  0  0  0  0  0  0  0  0  0  0  0
  138.1530  137.6750  151.8210 O   0  0  0  0  0  0  0  0  0  0  0  0
  136.5140  136.0930  151.4860 N   0  0  0  0  0  0  0  0  0  0  0  0
  135.8720  135.4930  151.9320 H   0  0  0  0  0  0  0  0  0  0  0  0
  136.2630  135.7650  154.1830 C   0  0  0  0  0  3  0  0  0  0  0  0
  137.0200  136.7720  153.7150 C   0  0  0  0  0  3  0  0  0  0  0  0
  135.2350  135.1510  158.3240 C   0  0  0  0  0  0  0  0  0  0  0  0
  136.4080  135.8240  157.9870 C   0  0  0  0  0  3  0  0  0  0  0  0
  136.7530  136.0260  156.6430 C   0  0  0  0  0  3  0  0  0  0  0  0
  135.9260  135.5730  155.6060 C   0  0  0  0  0  0  0  0  0  0  0  0
  134.7610  134.8750  155.9460 C   0  0  0  0  0  3  0  0  0  0  0  0
  134.4200  134.6750  157.2900 C   0  0  0  0  0  0  0  0  0  0  0  0
  135.7500  134.3790  160.5230 C   0  0  0  0  0  1  0  0  0  0  0  0
  134.8050  134.9110  159.6040 O   0  0  0  0  0  0  0  0  0  0  0  0
  133.2680  134.0020  157.6070 O   0  0  0  0  0  0  0  0  0  0  0  0
  133.2980  133.2710  158.1910 H   0  0  0  0  0  0  0  0  0  0  0  0
  136.5820  136.0830  150.0400 C   0  0  0  0  0  2  0  0  0  0  0  0
  135.3660  135.4600  149.3990 C   0  0  0  0  0  0  0  0  0  0  0  0
  134.8080  134.3030  149.9470 C   0  0  0  0  0  3  0  0  0  0  0  0
  133.7030  133.6940  149.3530 C   0  0  0  0  0  3  0  0  0  0  0  0
  133.1300  134.2410  148.2010 C   0  0  0  0  0  0  0  0  0  0  0  0
  133.6600  135.4030  147.6330 C   0  0  0  0  0  0  0  0  0  0  0  0
  134.7770  136.0060  148.2450 C   0  0  0  0  0  3  0  0  0  0  0  0
  132.0470  133.6040  147.6580 O   0  0  0  0  0  0  0  0  0  0  0  0
  131.6220  133.9630  146.9030 H   0  0  0  0  0  0  0  0  0  0  0  0
  133.2380  136.0690  146.5100 O   0  0  0  0  0  0  0  0  0  0  0  0
  132.7990  137.4130  146.6530 C   0  0  0  0  0  1  0  0  0  0  0  0
  1  6  1  0  0  0  0
  2  1  2  0  0  0  0
  3  4  1  0  0  0  0
  3  1  1  0  0  0  0
  5 10  1  0  0  0  0
  6  5  2  0  0  0  0
  7 14  1  0  0  0  0
  8  7  1  0  0  0  0
  9  8  2  0  0  0  0
 10 11  2  0  0  0  0
 10  9  1  0  0  0  0
 11 12  1  0  0  0  0
 12 15  1  0  0  0  0
 12  7  2  0  0  0  0
 14 13  1  0  0  0  0
 15 16  1  0  0  0  0
 17  3  1  0  0  0  0
 18 19  1  0  0  0  0
 18 17  1  0  0  0  0
 20 19  2  0  0  0  0
 21 20  1  0  0  0  0
 22 21  2  0  0  0  0
 22 23  1  0  0  0  0
 23 18  2  0  0  0  0
 24 21  1  0  0  0  0
 25 24  1  0  0  0  0
 26 27  1  0  0  0  0
 26 22  1  0  0  0  0
M  END
>  <MODEL>
5

>  <REMARK>
 VINA RESULT:    -7.179      2.428      9.214
 INTER + INTRA:         -10.665
 INTER:                 -10.090
 INTRA:                  -0.576
 UNBOUND:                -0.548
  Name = CHEMBL4464670
  10 active torsions:
  status: ('A' for Active; 'I' for Inactive)
    1  A    between atoms: C_1  and  O_2
    2  A    between atoms: O_2  and  C_3
    3  A    between atoms: C_6  and  C_7
    4  A    between atoms: C_8  and  C_9
    5  A    between atoms: N_11  and  C_12
    6  A    between atoms: C_12  and  C_13
    7  A    between atoms: C_16  and  O_17
    8  A    between atoms: C_18  and  O_19
    9  A    between atoms: O_19  and  C_20
   10  A    between atoms: C_23  and  O_24
                            x       y       z     vdW  Elec       q    Type
                         _______ _______ _______ _____ _____    ______ ____

>  <TORSDO>
F 8

>  <SCORE>
-7.179

>  <RMSD_LB>
2.428

>  <RMSD_UB>
9.214

$$$$
CHEMBL4464670
 OpenBabel10172500213D

 27 28  0  0  0  0  0  0  0  0999 V2000
  144.1110  138.3840  154.0210 C   0  0  0  0  0  0  0  0  0  0  0  0
  145.0880  137.6480  153.9640 O   0  0  0  0  0  0  0  0  0  0  0  0
  144.1590  139.7550  153.9520 N   0  0  0  0  0  0  0  0  0  0  0  0
  143.3150  140.2610  153.9880 H   0  0  0  0  0  0  0  0  0  0  0  0
  141.6990  138.6950  154.4470 C   0  0  0  0  0  3  0  0  0  0  0  0
  142.7240  137.8640  154.1910 C   0  0  0  0  0  3  0  0  0  0  0  0
  137.6200  137.3920  154.9410 C   0  0  0  0  0  0  0  0  0  0  0  0
  138.4530  137.5180  156.0510 C   0  0  0  0  0  3  0  0  0  0  0  0
  139.7830  137.9380  155.9000 C   0  0  0  0  0  3  0  0  0  0  0  0
  140.3040  138.2560  154.6390 C   0  0  0  0  0  0  0  0  0  0  0  0
  139.4740  138.1040  153.5210 C   0  0  0  0  0  3  0  0  0  0  0  0
  138.1460  137.6830  153.6760 C   0  0  0  0  0  0  0  0  0  0  0  0
  135.9620  135.9680  155.8990 C   0  0  0  0  0  1  0  0  0  0  0  0
  136.3070  136.9980  154.9820 O   0  0  0  0  0  0  0  0  0  0  0  0
  137.3420  137.5540  152.5750 O   0  0  0  0  0  0  0  0  0  0  0  0
  136.7470  136.8320  152.5100 H   0  0  0  0  0  0  0  0  0  0  0  0
  145.4010  140.4870  153.8310 C   0  0  0  0  0  2  0  0  0  0  0  0
  145.6760  140.9460  152.4200 C   0  0  0  0  0  0  0  0  0  0  0  0
  146.7050  141.8590  152.1750 C   0  0  0  0  0  3  0  0  0  0  0  0
  146.9570  142.3200  150.8830 C   0  0  0  0  0  3  0  0  0  0  0  0
  146.1840  141.8680  149.8090 C   0  0  0  0  0  0  0  0  0  0  0  0
  145.1510  140.9490  150.0200 C   0  0  0  0  0  0  0  0  0  0  0  0
  144.9100  140.4920  151.3310 C   0  0  0  0  0  3  0  0  0  0  0  0
  146.4720  142.3520  148.5620 O   0  0  0  0  0  0  0  0  0  0  0  0
  145.9330  143.0190  148.1830 H   0  0  0  0  0  0  0  0  0  0  0  0
  144.2940  140.4080  149.0960 O   0  0  0  0  0  0  0  0  0  0  0  0
  143.0000  140.0150  149.5310 C   0  0  0  0  0  1  0  0  0  0  0  0
  1  6  1  0  0  0  0
  2  1  2  0  0  0  0
  3  4  1  0  0  0  0
  3  1  1  0  0  0  0
  5 10  1  0  0  0  0
  6  5  2  0  0  0  0
  7 14  1  0  0  0  0
  7  8  1  0  0  0  0
  9  8  2  0  0  0  0
 10  9  1  0  0  0  0
 11 12  1  0  0  0  0
 11 10  2  0  0  0  0
 12  7  2  0  0  0  0
 14 13  1  0  0  0  0
 15 12  1  0  0  0  0
 16 15  1  0  0  0  0
 17  3  1  0  0  0  0
 18 17  1  0  0  0  0
 19 18  1  0  0  0  0
 20 19  2  0  0  0  0
 21 22  2  0  0  0  0
 21 20  1  0  0  0  0
 22 23  1  0  0  0  0
 23 18  2  0  0  0  0
 24 21  1  0  0  0  0
 25 24  1  0  0  0  0
 26 27  1  0  0  0  0
 26 22  1  0  0  0  0
M  END
>  <MODEL>
6

>  <REMARK>
 VINA RESULT:    -7.094      6.943     10.647
 INTER + INTRA:         -10.545
 INTER:                  -9.941
 INTRA:                  -0.604
 UNBOUND:                -0.548
  Name = CHEMBL4464670
  10 active torsions:
  status: ('A' for Active; 'I' for Inactive)
    1  A    between atoms: C_1  and  O_2
    2  A    between atoms: O_2  and  C_3
    3  A    between atoms: C_6  and  C_7
    4  A    between atoms: C_8  and  C_9
    5  A    between atoms: N_11  and  C_12
    6  A    between atoms: C_12  and  C_13
    7  A    between atoms: C_16  and  O_17
    8  A    between atoms: C_18  and  O_19
    9  A    between atoms: O_19  and  C_20
   10  A    between atoms: C_23  and  O_24
                            x       y       z     vdW  Elec       q    Type
                         _______ _______ _______ _____ _____    ______ ____

>  <TORSDO>
F 8

>  <SCORE>
-7.094

>  <RMSD_LB>
6.943

>  <RMSD_UB>
10.647

$$$$
CHEMBL4464670
 OpenBabel10172500213D

 27 28  0  0  0  0  0  0  0  0999 V2000
  136.8510  136.2790  151.5790 C   0  0  0  0  0  0  0  0  0  0  0  0
  137.3430  137.3860  151.4080 O   0  0  0  0  0  0  0  0  0  0  0  0
  136.6990  135.3300  150.5980 N   0  0  0  0  0  0  0  0  0  0  0  0
  136.3080  134.4590  150.8370 H   0  0  0  0  0  0  0  0  0  0  0  0
  136.6990  136.4440  154.0380 C   0  0  0  0  0  3  0  0  0  0  0  0
  136.3340  135.8260  152.9020 C   0  0  0  0  0  3  0  0  0  0  0  0
  135.3200  135.2290  157.9370 C   0  0  0  0  0  0  0  0  0  0  0  0
  136.4840  135.9860  157.8110 C   0  0  0  0  0  3  0  0  0  0  0  0
  136.9430  136.3830  156.5470 C   0  0  0  0  0  3  0  0  0  0  0  0
  136.2410  136.0460  155.3830 C   0  0  0  0  0  0  0  0  0  0  0  0
  135.0850  135.2650  155.5080 C   0  0  0  0  0  3  0  0  0  0  0  0
  134.6310  134.8700  156.7730 C   0  0  0  0  0  0  0  0  0  0  0  0
  134.1280  135.7660  159.9340 C   0  0  0  0  0  1  0  0  0  0  0  0
  134.7850  134.8000  159.1250 O   0  0  0  0  0  0  0  0  0  0  0  0
  133.4900  134.1170  156.8810 O   0  0  0  0  0  0  0  0  0  0  0  0
  132.6680  134.4690  156.6020 H   0  0  0  0  0  0  0  0  0  0  0  0
  137.0880  135.5610  149.2230 C   0  0  0  0  0  2  0  0  0  0  0  0
  136.7410  134.4080  148.3130 C   0  0  0  0  0  0  0  0  0  0  0  0
  137.7360  133.8160  147.5320 C   0  0  0  0  0  3  0  0  0  0  0  0
  137.4310  132.7690  146.6620 C   0  0  0  0  0  3  0  0  0  0  0  0
  136.1200  132.2920  146.5650 C   0  0  0  0  0  0  0  0  0  0  0  0
  135.1030  132.8590  147.3380 C   0  0  0  0  0  0  0  0  0  0  0  0
  135.4280  133.9150  148.2130 C   0  0  0  0  0  3  0  0  0  0  0  0
  135.8750  131.2640  145.6950 O   0  0  0  0  0  0  0  0  0  0  0  0
  135.0680  130.7880  145.7480 H   0  0  0  0  0  0  0  0  0  0  0  0
  133.7720  132.5270  147.3660 O   0  0  0  0  0  0  0  0  0  0  0  0
  132.8920  133.3490  148.1200 C   0  0  0  0  0  1  0  0  0  0  0  0
  1  6  1  0  0  0  0
  2  1  2  0  0  0  0
  3  4  1  0  0  0  0
  3  1  1  0  0  0  0
  5 10  1  0  0  0  0
  6  5  2  0  0  0  0
  7 14  1  0  0  0  0
  8  7  1  0  0  0  0
  9  8  2  0  0  0  0
 10 11  2  0  0  0  0
 10  9  1  0  0  0  0
 11 12  1  0  0  0  0
 12 15  1  0  0  0  0
 12  7  2  0  0  0  0
 14 13  1  0  0  0  0
 16 15  1  0  0  0  0
 17  3  1  0  0  0  0
 18 17  1  0  0  0  0
 19 18  2  0  0  0  0
 20 19  1  0  0  0  0
 21 20  2  0  0  0  0
 21 22  1  0  0  0  0
 22 26  1  0  0  0  0
 22 23  2  0  0  0  0
 23 18  1  0  0  0  0
 24 25  1  0  0  0  0
 24 21  1  0  0  0  0
 26 27  1  0  0  0  0
M  END
>  <MODEL>
7

>  <REMARK>
 VINA RESULT:    -7.086      3.302      9.596
 INTER + INTRA:         -10.534
 INTER:                 -10.080
 INTRA:                  -0.454
 UNBOUND:                -0.548
  Name = CHEMBL4464670
  10 active torsions:
  status: ('A' for Active; 'I' for Inactive)
    1  A    between atoms: C_1  and  O_2
    2  A    between atoms: O_2  and  C_3
    3  A    between atoms: C_6  and  C_7
    4  A    between atoms: C_8  and  C_9
    5  A    between atoms: N_11  and  C_12
    6  A    between atoms: C_12  and  C_13
    7  A    between atoms: C_16  and  O_17
    8  A    between atoms: C_18  and  O_19
    9  A    between atoms: O_19  and  C_20
   10  A    between atoms: C_23  and  O_24
                            x       y       z     vdW  Elec       q    Type
                         _______ _______ _______ _____ _____    ______ ____

>  <TORSDO>
F 8

>  <SCORE>
-7.086

>  <RMSD_LB>
3.302

>  <RMSD_UB>
9.596

$$$$
CHEMBL4464670
 OpenBabel10172500213D

 27 28  0  0  0  0  0  0  0  0999 V2000
  139.5550  138.5420  154.6210 C   0  0  0  0  0  0  0  0  0  0  0  0
  139.0020  139.6290  154.5290 O   0  0  0  0  0  0  0  0  0  0  0  0
  139.2860  137.6060  155.5900 N   0  0  0  0  0  0  0  0  0  0  0  0
  139.7720  136.7500  155.5700 H   0  0  0  0  0  0  0  0  0  0  0  0
  140.3340  137.7780  152.4060 C   0  0  0  0  0  3  0  0  0  0  0  0
  140.6230  138.1020  153.6780 C   0  0  0  0  0  3  0  0  0  0  0  0
  143.2970  136.4390  149.5760 C   0  0  0  0  0  0  0  0  0  0  0  0
  141.9450  136.4140  149.2380 C   0  0  0  0  0  3  0  0  0  0  0  0
  140.9730  136.8450  150.1530 C   0  0  0  0  0  3  0  0  0  0  0  0
  141.3320  137.3240  151.4200 C   0  0  0  0  0  0  0  0  0  0  0  0
  142.6880  137.3240  151.7680 C   0  0  0  0  0  3  0  0  0  0  0  0
  143.6560  136.8920  150.8510 C   0  0  0  0  0  0  0  0  0  0  0  0
  144.1720  134.8170  148.0600 C   0  0  0  0  0  1  0  0  0  0  0  0
  144.3220  136.0490  148.7530 O   0  0  0  0  0  0  0  0  0  0  0  0
  144.9810  136.9130  151.2010 O   0  0  0  0  0  0  0  0  0  0  0  0
  145.2640  136.4940  151.9900 H   0  0  0  0  0  0  0  0  0  0  0  0
  138.3170  137.8290  156.6420 C   0  0  0  0  0  2  0  0  0  0  0  0
  137.1970  136.8170  156.6320 C   0  0  0  0  0  0  0  0  0  0  0  0
  136.6340  136.4160  155.4180 C   0  0  0  0  0  3  0  0  0  0  0  0
  135.5780  135.5050  155.3890 C   0  0  0  0  0  3  0  0  0  0  0  0
  135.0730  134.9720  156.5790 C   0  0  0  0  0  0  0  0  0  0  0  0
  135.6200  135.3470  157.8090 C   0  0  0  0  0  0  0  0  0  0  0  0
  136.6860  136.2680  157.8220 C   0  0  0  0  0  3  0  0  0  0  0  0
  134.0360  134.0820  156.4940 O   0  0  0  0  0  0  0  0  0  0  0  0
  133.1830  134.3270  156.7950 H   0  0  0  0  0  0  0  0  0  0  0  0
  135.2490  134.9360  159.0640 O   0  0  0  0  0  0  0  0  0  0  0  0
  136.2600  134.4560  159.9400 C   0  0  0  0  0  1  0  0  0  0  0  0
  1  3  1  0  0  0  0
  2  1  2  0  0  0  0
  3 17  1  0  0  0  0
  4  3  1  0  0  0  0
  5  6  2  0  0  0  0
  6  1  1  0  0  0  0
  7 12  1  0  0  0  0
  8  7  2  0  0  0  0
  8  9  1  0  0  0  0
  9 10  2  0  0  0  0
 10 11  1  0  0  0  0
 10  5  1  0  0  0  0
 12 15  1  0  0  0  0
 12 11  2  0  0  0  0
 13 14  1  0  0  0  0
 14  7  1  0  0  0  0
 15 16  1  0  0  0  0
 18 17  1  0  0  0  0
 18 23  1  0  0  0  0
 19 18  2  0  0  0  0
 20 19  1  0  0  0  0
 20 21  2  0  0  0  0
 21 22  1  0  0  0  0
 22 23  2  0  0  0  0
 22 26  1  0  0  0  0
 24 21  1  0  0  0  0
 24 25  1  0  0  0  0
 26 27  1  0  0  0  0
M  END
>  <MODEL>
8

>  <REMARK>
 VINA RESULT:    -7.040      5.186      7.837
 INTER + INTRA:         -10.469
 INTER:                  -9.921
 INTRA:                  -0.548
 UNBOUND:                -0.548
  Name = CHEMBL4464670
  10 active torsions:
  status: ('A' for Active; 'I' for Inactive)
    1  A    between atoms: C_1  and  O_2
    2  A    between atoms: O_2  and  C_3
    3  A    between atoms: C_6  and  C_7
    4  A    between atoms: C_8  and  C_9
    5  A    between atoms: N_11  and  C_12
    6  A    between atoms: C_12  and  C_13
    7  A    between atoms: C_16  and  O_17
    8  A    between atoms: C_18  and  O_19
    9  A    between atoms: O_19  and  C_20
   10  A    between atoms: C_23  and  O_24
                            x       y       z     vdW  Elec       q    Type
                         _______ _______ _______ _____ _____    ______ ____

>  <TORSDO>
F 8

>  <SCORE>
-7.040

>  <RMSD_LB>
5.186

>  <RMSD_UB>
7.837

$$$$
CHEMBL4464670
 OpenBabel10172500213D

 27 28  0  0  0  0  0  0  0  0999 V2000
  134.8380  134.9740  151.8410 C   0  0  0  0  0  0  0  0  0  0  0  0
  135.4030  134.0070  151.3460 O   0  0  0  0  0  0  0  0  0  0  0  0
  133.6070  135.4430  151.4550 N   0  0  0  0  0  0  0  0  0  0  0  0
  133.2250  136.2180  151.9270 H   0  0  0  0  0  0  0  0  0  0  0  0
  135.6840  135.2430  154.1450 C   0  0  0  0  0  3  0  0  0  0  0  0
  135.4430  135.7820  152.9380 C   0  0  0  0  0  3  0  0  0  0  0  0
  137.4000  137.4570  157.4220 C   0  0  0  0  0  0  0  0  0  0  0  0
  136.5640  136.3710  157.6740 C   0  0  0  0  0  3  0  0  0  0  0  0
  135.9980  135.6460  156.6140 C   0  0  0  0  0  3  0  0  0  0  0  0
  136.2680  135.9810  155.2810 C   0  0  0  0  0  0  0  0  0  0  0  0
  137.0880  137.0890  155.0290 C   0  0  0  0  0  3  0  0  0  0  0  0
  137.6500  137.8100  156.0900 C   0  0  0  0  0  0  0  0  0  0  0  0
  137.6410  137.9850  159.7370 C   0  0  0  0  0  1  0  0  0  0  0  0
  138.0080  138.2220  158.3840 O   0  0  0  0  0  0  0  0  0  0  0  0
  138.4630  138.8820  155.8280 O   0  0  0  0  0  0  0  0  0  0  0  0
  138.5280  139.2190  154.9560 H   0  0  0  0  0  0  0  0  0  0  0  0
  132.8470  134.8440  150.3780 C   0  0  0  0  0  2  0  0  0  0  0  0
  133.1350  135.4730  149.0360 C   0  0  0  0  0  0  0  0  0  0  0  0
  132.6070  136.7300  148.7320 C   0  0  0  0  0  3  0  0  0  0  0  0
  132.8350  137.3160  147.4860 C   0  0  0  0  0  3  0  0  0  0  0  0
  133.6050  136.6540  146.5250 C   0  0  0  0  0  0  0  0  0  0  0  0
  134.1530  135.3980  146.8030 C   0  0  0  0  0  0  0  0  0  0  0  0
  133.9140  134.8200  148.0650 C   0  0  0  0  0  3  0  0  0  0  0  0
  133.7970  137.2730  145.3200 O   0  0  0  0  0  0  0  0  0  0  0  0
  134.4900  137.8970  145.2200 H   0  0  0  0  0  0  0  0  0  0  0  0
  134.9190  134.6060  145.9850 O   0  0  0  0  0  0  0  0  0  0  0  0
  134.7940  133.1960  146.1070 C   0  0  0  0  0  1  0  0  0  0  0  0
  1  6  1  0  0  0  0
  2  1  2  0  0  0  0
  3  1  1  0  0  0  0
  3  4  1  0  0  0  0
  5 10  1  0  0  0  0
  6  5  2  0  0  0  0
  7  8  1  0  0  0  0
  7 14  1  0  0  0  0
  9  8  2  0  0  0  0
 10  9  1  0  0  0  0
 11 10  2  0  0  0  0
 11 12  1  0  0  0  0
 12  7  2  0  0  0  0
 14 13  1  0  0  0  0
 15 12  1  0  0  0  0
 16 15  1  0  0  0  0
 17  3  1  0  0  0  0
 18 17  1  0  0  0  0
 19 18  1  0  0  0  0
 20 19  2  0  0  0  0
 21 22  2  0  0  0  0
 21 20  1  0  0  0  0
 22 23  1  0  0  0  0
 23 18  2  0  0  0  0
 24 21  1  0  0  0  0
 25 24  1  0  0  0  0
 26 27  1  0  0  0  0
 26 22  1  0  0  0  0
M  END
>  <MODEL>
9

>  <REMARK>
 VINA RESULT:    -6.994      1.809      9.462
 INTER + INTRA:         -10.405
 INTER:                  -9.849
 INTRA:                  -0.556
 UNBOUND:                -0.548
  Name = CHEMBL4464670
  10 active torsions:
  status: ('A' for Active; 'I' for Inactive)
    1  A    between atoms: C_1  and  O_2
    2  A    between atoms: O_2  and  C_3
    3  A    between atoms: C_6  and  C_7
    4  A    between atoms: C_8  and  C_9
    5  A    between atoms: N_11  and  C_12
    6  A    between atoms: C_12  and  C_13
    7  A    between atoms: C_16  and  O_17
    8  A    between atoms: C_18  and  O_19
    9  A    between atoms: O_19  and  C_20
   10  A    between atoms: C_23  and  O_24
                            x       y       z     vdW  Elec       q    Type
                         _______ _______ _______ _____ _____    ______ ____

>  <TORSDO>
F 8

>  <SCORE>
-6.994

>  <RMSD_LB>
1.809

>  <RMSD_UB>
9.462

$$$$
