CHEMBL226919
 OpenBabel10172500353D

 16 16  0  0  0  0  0  0  0  0999 V2000
  137.0200  135.7000  156.6670 C   0  0  0  0  0  0  0  0  0  0  0  0
  136.6380  135.4050  157.9780 C   0  0  0  0  0  3  0  0  0  0  0  0
  135.3680  134.8930  158.2470 C   0  0  0  0  0  3  0  0  0  0  0  0
  134.4570  134.6780  157.2070 C   0  0  0  0  0  0  0  0  0  0  0  0
  134.8120  134.9740  155.8870 C   0  0  0  0  0  0  0  0  0  0  0  0
  136.0960  135.4830  155.6340 C   0  0  0  0  0  3  0  0  0  0  0  0
  133.2230  134.1820  157.5250 O   0  0  0  0  0  0  0  0  0  0  0  0
  132.8910  134.2760  158.3960 H   0  0  0  0  0  0  0  0  0  0  0  0
  134.0590  134.8390  154.7520 O   0  0  0  0  0  0  0  0  0  0  0  0
  134.5200  133.9530  153.7430 C   0  0  0  0  0  1  0  0  0  0  0  0
  138.3820  136.2810  156.3690 C   0  0  0  0  0  2  0  0  0  0  0  0
  138.4370  137.7990  156.5410 C   0  0  0  0  0  2  0  0  0  0  0  0
  137.8000  138.5000  155.3660 C   0  0  0  0  0  0  0  0  0  0  0  0
  136.8680  139.2870  155.4290 O   0  0  0  0  0  0  0  0  0  0  0  0
  139.4180  139.0660  153.7720 C   0  0  0  0  0  1  0  0  0  0  0  0
  138.4350  138.1300  154.2160 O   0  0  0  0  0  0  0  0  0  0  0  0
  1  2  1  0  0  0  0
  2  3  2  0  0  0  0
  4  7  1  0  0  0  0
  4  3  1  0  0  0  0
  5  4  2  0  0  0  0
  6  5  1  0  0  0  0
  6  1  2  0  0  0  0
  7  8  1  0  0  0  0
  9  5  1  0  0  0  0
 10  9  1  0  0  0  0
 11 12  1  0  0  0  0
 11  1  1  0  0  0  0
 13 14  2  0  0  0  0
 13 12  1  0  0  0  0
 15 16  1  0  0  0  0
 16 13  1  0  0  0  0
M  END
>  <MODEL>
1

>  <REMARK>
 VINA RESULT:    -5.649      0.000      0.000
 INTER + INTRA:          -7.776
 INTER:                  -7.459
 INTRA:                  -0.317
 UNBOUND:                -0.311
  Name = CHEMBL226919
  8 active torsions:
  status: ('A' for Active; 'I' for Inactive)
    1  A    between atoms: C_1  and  O_2
    2  A    between atoms: O_2  and  C_3
    3  A    between atoms: C_3  and  C_5
    4  A    between atoms: C_5  and  C_6
    5  A    between atoms: C_6  and  C_7
    6  A    between atoms: C_10  and  O_11
    7  A    between atoms: C_12  and  O_13
    8  A    between atoms: O_13  and  C_14
                            x       y       z     vdW  Elec       q    Type
                         _______ _______ _______ _____ _____    ______ ____

>  <TORSDO>
F 6

>  <SCORE>
-5.649

>  <RMSD_LB>
0.000

>  <RMSD_UB>
0.000

$$$$
CHEMBL226919
 OpenBabel10172500353D

 16 16  0  0  0  0  0  0  0  0999 V2000
  134.8050  134.0950  150.8230 C   0  0  0  0  0  0  0  0  0  0  0  0
  133.4570  133.8170  151.0640 C   0  0  0  0  0  3  0  0  0  0  0  0
  132.5630  133.6760  150.0020 C   0  0  0  0  0  3  0  0  0  0  0  0
  133.0030  133.8220  148.6820 C   0  0  0  0  0  0  0  0  0  0  0  0
  134.3450  134.1090  148.4150 C   0  0  0  0  0  0  0  0  0  0  0  0
  135.2320  134.2420  149.4950 C   0  0  0  0  0  3  0  0  0  0  0  0
  132.0840  133.6810  147.6790 O   0  0  0  0  0  0  0  0  0  0  0  0
  132.3690  133.6010  146.7910 H   0  0  0  0  0  0  0  0  0  0  0  0
  134.9510  134.2920  147.2010 O   0  0  0  0  0  0  0  0  0  0  0  0
  136.0500  133.4580  146.8680 C   0  0  0  0  0  1  0  0  0  0  0  0
  135.7750  134.2780  151.9660 C   0  0  0  0  0  2  0  0  0  0  0  0
  135.0830  134.4500  153.3180 C   0  0  0  0  0  2  0  0  0  0  0  0
  134.9680  135.9090  153.6850 C   0  0  0  0  0  0  0  0  0  0  0  0
  133.9560  136.4610  154.0910 O   0  0  0  0  0  0  0  0  0  0  0  0
  136.9190  136.6910  154.7150 C   0  0  0  0  0  1  0  0  0  0  0  0
  136.1750  136.5200  153.5070 O   0  0  0  0  0  0  0  0  0  0  0  0
  1  2  1  0  0  0  0
  1 11  1  0  0  0  0
  3  2  2  0  0  0  0
  4  3  1  0  0  0  0
  5  4  2  0  0  0  0
  5  6  1  0  0  0  0
  6  1  2  0  0  0  0
  7  4  1  0  0  0  0
  8  7  1  0  0  0  0
  9  5  1  0  0  0  0
 10  9  1  0  0  0  0
 11 12  1  0  0  0  0
 12 13  1  0  0  0  0
 13 14  2  0  0  0  0
 16 13  1  0  0  0  0
 16 15  1  0  0  0  0
M  END
>  <MODEL>
2

>  <REMARK>
 VINA RESULT:    -5.472      4.449      6.723
 INTER + INTRA:          -7.542
 INTER:                  -7.197
 INTRA:                  -0.345
 UNBOUND:                -0.311
  Name = CHEMBL226919
  8 active torsions:
  status: ('A' for Active; 'I' for Inactive)
    1  A    between atoms: C_1  and  O_2
    2  A    between atoms: O_2  and  C_3
    3  A    between atoms: C_3  and  C_5
    4  A    between atoms: C_5  and  C_6
    5  A    between atoms: C_6  and  C_7
    6  A    between atoms: C_10  and  O_11
    7  A    between atoms: C_12  and  O_13
    8  A    between atoms: O_13  and  C_14
                            x       y       z     vdW  Elec       q    Type
                         _______ _______ _______ _____ _____    ______ ____

>  <TORSDO>
F 6

>  <SCORE>
-5.472

>  <RMSD_LB>
4.449

>  <RMSD_UB>
6.723

$$$$
CHEMBL226919
 OpenBabel10172500353D

 16 16  0  0  0  0  0  0  0  0999 V2000
  147.6650  141.7690  151.9010 C   0  0  0  0  0  0  0  0  0  0  0  0
  146.8670  142.2460  152.9440 C   0  0  0  0  0  3  0  0  0  0  0  0
  146.7640  141.5340  154.1390 C   0  0  0  0  0  3  0  0  0  0  0  0
  147.4510  140.3270  154.3060 C   0  0  0  0  0  0  0  0  0  0  0  0
  148.2500  139.8230  153.2740 C   0  0  0  0  0  0  0  0  0  0  0  0
  148.3470  140.5560  152.0800 C   0  0  0  0  0  3  0  0  0  0  0  0
  147.3100  139.6660  155.4940 O   0  0  0  0  0  0  0  0  0  0  0  0
  147.1210  138.7490  155.5000 H   0  0  0  0  0  0  0  0  0  0  0  0
  148.9840  138.6680  153.2520 O   0  0  0  0  0  0  0  0  0  0  0  0
  148.3510  137.4810  152.7990 C   0  0  0  0  0  1  0  0  0  0  0  0
  147.7610  142.5180  150.5930 C   0  0  0  0  0  2  0  0  0  0  0  0
  146.4160  142.6500  149.8790 C   0  0  0  0  0  2  0  0  0  0  0  0
  145.8450  141.2930  149.5470 C   0  0  0  0  0  0  0  0  0  0  0  0
  146.3850  140.4470  148.8500 O   0  0  0  0  0  0  0  0  0  0  0  0
  144.5600  140.0260  151.0370 C   0  0  0  0  0  1  0  0  0  0  0  0
  144.6330  141.1480  150.1560 O   0  0  0  0  0  0  0  0  0  0  0  0
  1  6  2  0  0  0  0
  1  2  1  0  0  0  0
  2  3  2  0  0  0  0
  3  4  1  0  0  0  0
  4  7  1  0  0  0  0
  5  4  2  0  0  0  0
  6  5  1  0  0  0  0
  7  8  1  0  0  0  0
  9  5  1  0  0  0  0
 10  9  1  0  0  0  0
 11  1  1  0  0  0  0
 12 11  1  0  0  0  0
 13 12  1  0  0  0  0
 13 16  1  0  0  0  0
 14 13  2  0  0  0  0
 16 15  1  0  0  0  0
M  END
>  <MODEL>
3

>  <REMARK>
 VINA RESULT:    -5.471     10.922     12.802
 INTER + INTRA:          -7.541
 INTER:                  -7.016
 INTRA:                  -0.525
 UNBOUND:                -0.311
  Name = CHEMBL226919
  8 active torsions:
  status: ('A' for Active; 'I' for Inactive)
    1  A    between atoms: C_1  and  O_2
    2  A    between atoms: O_2  and  C_3
    3  A    between atoms: C_3  and  C_5
    4  A    between atoms: C_5  and  C_6
    5  A    between atoms: C_6  and  C_7
    6  A    between atoms: C_10  and  O_11
    7  A    between atoms: C_12  and  O_13
    8  A    between atoms: O_13  and  C_14
                            x       y       z     vdW  Elec       q    Type
                         _______ _______ _______ _____ _____    ______ ____

>  <TORSDO>
F 6

>  <SCORE>
-5.471

>  <RMSD_LB>
10.922

>  <RMSD_UB>
12.802

$$$$
CHEMBL226919
 OpenBabel10172500353D

 16 16  0  0  0  0  0  0  0  0999 V2000
  146.1870  141.8940  152.1220 C   0  0  0  0  0  0  0  0  0  0  0  0
  146.9470  142.5570  151.1550 C   0  0  0  0  0  3  0  0  0  0  0  0
  146.7680  142.2760  149.8000 C   0  0  0  0  0  3  0  0  0  0  0  0
  145.8320  141.3180  149.3930 C   0  0  0  0  0  0  0  0  0  0  0  0
  145.0670  140.6340  150.3420 C   0  0  0  0  0  0  0  0  0  0  0  0
  145.2550  140.9330  151.7010 C   0  0  0  0  0  3  0  0  0  0  0  0
  145.7020  141.0760  148.0540 O   0  0  0  0  0  0  0  0  0  0  0  0
  145.5140  140.2100  147.7500 H   0  0  0  0  0  0  0  0  0  0  0  0
  144.1180  139.6690  150.1360 O   0  0  0  0  0  0  0  0  0  0  0  0
  142.7840  140.0820  149.8850 C   0  0  0  0  0  1  0  0  0  0  0  0
  146.3930  142.1710  153.5930 C   0  0  0  0  0  2  0  0  0  0  0  0
  147.8240  141.9030  154.0580 C   0  0  0  0  0  2  0  0  0  0  0  0
  148.0500  140.4300  154.2930 C   0  0  0  0  0  0  0  0  0  0  0  0
  149.0930  139.8290  154.0790 O   0  0  0  0  0  0  0  0  0  0  0  0
  147.1460  138.7120  155.6010 C   0  0  0  0  0  1  0  0  0  0  0  0
  146.9130  139.8680  154.7950 O   0  0  0  0  0  0  0  0  0  0  0  0
  1 11  1  0  0  0  0
  2  1  2  0  0  0  0
  3  2  1  0  0  0  0
  4  3  2  0  0  0  0
  4  5  1  0  0  0  0
  5  6  2  0  0  0  0
  6  1  1  0  0  0  0
  7  4  1  0  0  0  0
  8  7  1  0  0  0  0
  9  5  1  0  0  0  0
 10  9  1  0  0  0  0
 11 12  1  0  0  0  0
 12 13  1  0  0  0  0
 13 16  1  0  0  0  0
 14 13  2  0  0  0  0
 16 15  1  0  0  0  0
M  END
>  <MODEL>
4

>  <REMARK>
 VINA RESULT:    -5.445     10.274     12.414
 INTER + INTRA:          -7.507
 INTER:                  -7.120
 INTRA:                  -0.387
 UNBOUND:                -0.311
  Name = CHEMBL226919
  8 active torsions:
  status: ('A' for Active; 'I' for Inactive)
    1  A    between atoms: C_1  and  O_2
    2  A    between atoms: O_2  and  C_3
    3  A    between atoms: C_3  and  C_5
    4  A    between atoms: C_5  and  C_6
    5  A    between atoms: C_6  and  C_7
    6  A    between atoms: C_10  and  O_11
    7  A    between atoms: C_12  and  O_13
    8  A    between atoms: O_13  and  C_14
                            x       y       z     vdW  Elec       q    Type
                         _______ _______ _______ _____ _____    ______ ____

>  <TORSDO>
F 6

>  <SCORE>
-5.445

>  <RMSD_LB>
10.274

>  <RMSD_UB>
12.414

$$$$
CHEMBL226919
 OpenBabel10172500353D

 16 16  0  0  0  0  0  0  0  0999 V2000
  134.0890  134.6540  150.3280 C   0  0  0  0  0  0  0  0  0  0  0  0
  134.3030  133.3070  150.0270 C   0  0  0  0  0  3  0  0  0  0  0  0
  133.8990  132.7840  148.7980 C   0  0  0  0  0  3  0  0  0  0  0  0
  133.2630  133.6000  147.8560 C   0  0  0  0  0  0  0  0  0  0  0  0
  133.0280  134.9490  148.1380 C   0  0  0  0  0  0  0  0  0  0  0  0
  133.4480  135.4610  149.3760 C   0  0  0  0  0  3  0  0  0  0  0  0
  132.8800  133.0350  146.6710 O   0  0  0  0  0  0  0  0  0  0  0  0
  132.4270  133.5490  146.0320 H   0  0  0  0  0  0  0  0  0  0  0  0
  132.4200  135.8900  147.3510 O   0  0  0  0  0  0  0  0  0  0  0  0
  132.9910  137.1890  147.2970 C   0  0  0  0  0  1  0  0  0  0  0  0
  134.4980  135.2240  151.6660 C   0  0  0  0  0  2  0  0  0  0  0  0
  133.4640  134.9750  152.7640 C   0  0  0  0  0  2  0  0  0  0  0  0
  133.9650  135.4680  154.1000 C   0  0  0  0  0  0  0  0  0  0  0  0
  133.5030  135.1590  155.1890 O   0  0  0  0  0  0  0  0  0  0  0  0
  135.9780  136.2820  154.9750 C   0  0  0  0  0  1  0  0  0  0  0  0
  135.0260  136.3040  153.9090 O   0  0  0  0  0  0  0  0  0  0  0  0
  1 11  1  0  0  0  0
  2  1  1  0  0  0  0
  3  2  2  0  0  0  0
  4  5  2  0  0  0  0
  4  3  1  0  0  0  0
  5  6  1  0  0  0  0
  6  1  2  0  0  0  0
  7  4  1  0  0  0  0
  8  7  1  0  0  0  0
  9  5  1  0  0  0  0
 10  9  1  0  0  0  0
 11 12  1  0  0  0  0
 12 13  1  0  0  0  0
 13 14  2  0  0  0  0
 16 13  1  0  0  0  0
 16 15  1  0  0  0  0
M  END
>  <MODEL>
5

>  <REMARK>
 VINA RESULT:    -5.442      4.806      7.419
 INTER + INTRA:          -7.503
 INTER:                  -7.244
 INTRA:                  -0.259
 UNBOUND:                -0.311
  Name = CHEMBL226919
  8 active torsions:
  status: ('A' for Active; 'I' for Inactive)
    1  A    between atoms: C_1  and  O_2
    2  A    between atoms: O_2  and  C_3
    3  A    between atoms: C_3  and  C_5
    4  A    between atoms: C_5  and  C_6
    5  A    between atoms: C_6  and  C_7
    6  A    between atoms: C_10  and  O_11
    7  A    between atoms: C_12  and  O_13
    8  A    between atoms: O_13  and  C_14
                            x       y       z     vdW  Elec       q    Type
                         _______ _______ _______ _____ _____    ______ ____

>  <TORSDO>
F 6

>  <SCORE>
-5.442

>  <RMSD_LB>
4.806

>  <RMSD_UB>
7.419

$$$$
CHEMBL226919
 OpenBabel10172500353D

 16 16  0  0  0  0  0  0  0  0999 V2000
  147.6160  142.2340  151.3580 C   0  0  0  0  0  0  0  0  0  0  0  0
  148.9730  142.2840  151.6870 C   0  0  0  0  0  3  0  0  0  0  0  0
  149.4050  141.9250  152.9650 C   0  0  0  0  0  3  0  0  0  0  0  0
  148.4820  141.5200  153.9360 C   0  0  0  0  0  0  0  0  0  0  0  0
  147.1180  141.4700  153.6340 C   0  0  0  0  0  0  0  0  0  0  0  0
  146.7020  141.8290  152.3420 C   0  0  0  0  0  3  0  0  0  0  0  0
  148.9580  141.1860  155.1740 O   0  0  0  0  0  0  0  0  0  0  0  0
  149.6970  141.6390  155.5300 H   0  0  0  0  0  0  0  0  0  0  0  0
  146.0780  141.1100  154.4480 O   0  0  0  0  0  0  0  0  0  0  0  0
  145.2300  140.0540  154.0250 C   0  0  0  0  0  1  0  0  0  0  0  0
  147.1360  142.6470  149.9870 C   0  0  0  0  0  2  0  0  0  0  0  0
  145.9150  141.8570  149.5170 C   0  0  0  0  0  2  0  0  0  0  0  0
  146.3230  140.7050  148.6330 C   0  0  0  0  0  0  0  0  0  0  0  0
  146.5270  139.5600  149.0090 O   0  0  0  0  0  0  0  0  0  0  0  0
  146.7270  140.0940  146.4100 C   0  0  0  0  0  1  0  0  0  0  0  0
  146.4180  141.1320  147.3410 O   0  0  0  0  0  0  0  0  0  0  0  0
  1  2  2  0  0  0  0
  1  6  1  0  0  0  0
  2  3  1  0  0  0  0
  3  4  2  0  0  0  0
  4  7  1  0  0  0  0
  5  4  1  0  0  0  0
  5  9  1  0  0  0  0
  6  5  2  0  0  0  0
  7  8  1  0  0  0  0
 10  9  1  0  0  0  0
 11  1  1  0  0  0  0
 12 11  1  0  0  0  0
 13 14  2  0  0  0  0
 13 12  1  0  0  0  0
 15 16  1  0  0  0  0
 16 13  1  0  0  0  0
M  END
>  <MODEL>
6

>  <REMARK>
 VINA RESULT:    -5.346     10.581     13.458
 INTER + INTRA:          -7.376
 INTER:                  -7.065
 INTRA:                  -0.310
 UNBOUND:                -0.311
  Name = CHEMBL226919
  8 active torsions:
  status: ('A' for Active; 'I' for Inactive)
    1  A    between atoms: C_1  and  O_2
    2  A    between atoms: O_2  and  C_3
    3  A    between atoms: C_3  and  C_5
    4  A    between atoms: C_5  and  C_6
    5  A    between atoms: C_6  and  C_7
    6  A    between atoms: C_10  and  O_11
    7  A    between atoms: C_12  and  O_13
    8  A    between atoms: O_13  and  C_14
                            x       y       z     vdW  Elec       q    Type
                         _______ _______ _______ _____ _____    ______ ____

>  <TORSDO>
F 6

>  <SCORE>
-5.346

>  <RMSD_LB>
10.581

>  <RMSD_UB>
13.458

$$$$
CHEMBL226919
 OpenBabel10172500353D

 16 16  0  0  0  0  0  0  0  0999 V2000
  133.0760  136.1200  149.2790 C   0  0  0  0  0  0  0  0  0  0  0  0
  132.5450  137.0610  148.3930 C   0  0  0  0  0  3  0  0  0  0  0  0
  132.7480  136.9320  147.0190 C   0  0  0  0  0  3  0  0  0  0  0  0
  133.4960  135.8640  146.5110 C   0  0  0  0  0  0  0  0  0  0  0  0
  134.0460  134.9150  147.3770 C   0  0  0  0  0  0  0  0  0  0  0  0
  133.8270  135.0560  148.7560 C   0  0  0  0  0  3  0  0  0  0  0  0
  133.6700  135.7890  145.1560 O   0  0  0  0  0  0  0  0  0  0  0  0
  132.9610  135.5190  144.6070 H   0  0  0  0  0  0  0  0  0  0  0  0
  134.8040  133.8170  147.0670 O   0  0  0  0  0  0  0  0  0  0  0  0
  136.2170  133.9460  147.1080 C   0  0  0  0  0  1  0  0  0  0  0  0
  132.8870  136.2660  150.7700 C   0  0  0  0  0  2  0  0  0  0  0  0
  133.1410  134.9680  151.5360 C   0  0  0  0  0  2  0  0  0  0  0  0
  133.8210  135.2420  152.8550 C   0  0  0  0  0  0  0  0  0  0  0  0
  133.6170  134.6370  153.8980 O   0  0  0  0  0  0  0  0  0  0  0  0
  136.0040  135.9890  153.2460 C   0  0  0  0  0  1  0  0  0  0  0  0
  134.7110  136.2650  152.7060 O   0  0  0  0  0  0  0  0  0  0  0  0
  1 11  1  0  0  0  0
  2  1  2  0  0  0  0
  3  2  1  0  0  0  0
  4  3  2  0  0  0  0
  4  5  1  0  0  0  0
  5  6  2  0  0  0  0
  6  1  1  0  0  0  0
  7  4  1  0  0  0  0
  8  7  1  0  0  0  0
  9 10  1  0  0  0  0
  9  5  1  0  0  0  0
 11 12  1  0  0  0  0
 12 13  1  0  0  0  0
 13 14  2  0  0  0  0
 16 13  1  0  0  0  0
 16 15  1  0  0  0  0
M  END
>  <MODEL>
7

>  <REMARK>
 VINA RESULT:    -5.090      5.734      8.388
 INTER + INTRA:          -7.038
 INTER:                  -6.714
 INTRA:                  -0.324
 UNBOUND:                -0.311
  Name = CHEMBL226919
  8 active torsions:
  status: ('A' for Active; 'I' for Inactive)
    1  A    between atoms: C_1  and  O_2
    2  A    between atoms: O_2  and  C_3
    3  A    between atoms: C_3  and  C_5
    4  A    between atoms: C_5  and  C_6
    5  A    between atoms: C_6  and  C_7
    6  A    between atoms: C_10  and  O_11
    7  A    between atoms: C_12  and  O_13
    8  A    between atoms: O_13  and  C_14
                            x       y       z     vdW  Elec       q    Type
                         _______ _______ _______ _____ _____    ______ ____

>  <TORSDO>
F 6

>  <SCORE>
-5.090

>  <RMSD_LB>
5.734

>  <RMSD_UB>
8.388

$$$$
CHEMBL226919
 OpenBabel10172500353D

 16 16  0  0  0  0  0  0  0  0999 V2000
  134.1500  135.0740  150.4610 C   0  0  0  0  0  0  0  0  0  0  0  0
  133.4580  136.2840  150.3750 C   0  0  0  0  0  3  0  0  0  0  0  0
  132.8090  136.6460  149.1950 C   0  0  0  0  0  3  0  0  0  0  0  0
  132.8520  135.8060  148.0770 C   0  0  0  0  0  0  0  0  0  0  0  0
  133.5460  134.5930  148.1340 C   0  0  0  0  0  0  0  0  0  0  0  0
  134.1880  134.2420  149.3320 C   0  0  0  0  0  3  0  0  0  0  0  0
  132.2040  136.2120  146.9430 O   0  0  0  0  0  0  0  0  0  0  0  0
  132.6270  136.1370  146.1100 H   0  0  0  0  0  0  0  0  0  0  0  0
  133.7020  133.6540  147.1500 O   0  0  0  0  0  0  0  0  0  0  0  0
  135.0160  133.2040  146.8560 C   0  0  0  0  0  1  0  0  0  0  0  0
  134.8800  134.6860  151.7250 C   0  0  0  0  0  2  0  0  0  0  0  0
  133.9380  134.3360  152.8770 C   0  0  0  0  0  2  0  0  0  0  0  0
  134.0050  135.3790  153.9660 C   0  0  0  0  0  0  0  0  0  0  0  0
  134.3490  136.5420  153.8140 O   0  0  0  0  0  0  0  0  0  0  0  0
  134.6290  134.8110  156.1490 C   0  0  0  0  0  1  0  0  0  0  0  0
  133.6080  134.8290  155.1490 O   0  0  0  0  0  0  0  0  0  0  0  0
  1 11  1  0  0  0  0
  2  1  1  0  0  0  0
  3  2  2  0  0  0  0
  4  5  2  0  0  0  0
  4  3  1  0  0  0  0
  5  6  1  0  0  0  0
  6  1  2  0  0  0  0
  7  4  1  0  0  0  0
  8  7  1  0  0  0  0
  9  5  1  0  0  0  0
 10  9  1  0  0  0  0
 11 12  1  0  0  0  0
 12 13  1  0  0  0  0
 13 16  1  0  0  0  0
 14 13  2  0  0  0  0
 16 15  1  0  0  0  0
M  END
>  <MODEL>
8

>  <REMARK>
 VINA RESULT:    -5.025      4.749      7.450
 INTER + INTRA:          -6.952
 INTER:                  -6.645
 INTRA:                  -0.307
 UNBOUND:                -0.311
  Name = CHEMBL226919
  8 active torsions:
  status: ('A' for Active; 'I' for Inactive)
    1  A    between atoms: C_1  and  O_2
    2  A    between atoms: O_2  and  C_3
    3  A    between atoms: C_3  and  C_5
    4  A    between atoms: C_5  and  C_6
    5  A    between atoms: C_6  and  C_7
    6  A    between atoms: C_10  and  O_11
    7  A    between atoms: C_12  and  O_13
    8  A    between atoms: O_13  and  C_14
                            x       y       z     vdW  Elec       q    Type
                         _______ _______ _______ _____ _____    ______ ____

>  <TORSDO>
F 6

>  <SCORE>
-5.025

>  <RMSD_LB>
4.749

>  <RMSD_UB>
7.450

$$$$
CHEMBL226919
 OpenBabel10172500353D

 16 16  0  0  0  0  0  0  0  0999 V2000
  145.8990  141.2420  152.1260 C   0  0  0  0  0  0  0  0  0  0  0  0
  146.5140  142.2280  152.9010 C   0  0  0  0  0  3  0  0  0  0  0  0
  147.4200  141.8780  153.9020 C   0  0  0  0  0  3  0  0  0  0  0  0
  147.7160  140.5330  154.1510 C   0  0  0  0  0  0  0  0  0  0  0  0
  147.1060  139.5270  153.3960 C   0  0  0  0  0  0  0  0  0  0  0  0
  146.2010  139.8970  152.3880 C   0  0  0  0  0  3  0  0  0  0  0  0
  148.6050  140.2440  155.1490 O   0  0  0  0  0  0  0  0  0  0  0  0
  148.3160  139.7960  155.9190 H   0  0  0  0  0  0  0  0  0  0  0  0
  147.2630  138.1710  153.4980 O   0  0  0  0  0  0  0  0  0  0  0  0
  146.3350  137.4460  154.2890 C   0  0  0  0  0  1  0  0  0  0  0  0
  144.8950  141.6090  151.0580 C   0  0  0  0  0  2  0  0  0  0  0  0
  144.4600  140.4150  150.2090 C   0  0  0  0  0  2  0  0  0  0  0  0
  143.0260  140.0420  150.4950 C   0  0  0  0  0  0  0  0  0  0  0  0
  142.5910  139.6720  151.5750 O   0  0  0  0  0  0  0  0  0  0  0  0
  140.9090  139.8300  149.5200 C   0  0  0  0  0  1  0  0  0  0  0  0
  142.2820  140.1930  149.3620 O   0  0  0  0  0  0  0  0  0  0  0  0
  1  6  2  0  0  0  0
  1  2  1  0  0  0  0
  2  3  2  0  0  0  0
  3  4  1  0  0  0  0
  4  7  1  0  0  0  0
  5  9  1  0  0  0  0
  5  4  2  0  0  0  0
  6  5  1  0  0  0  0
  7  8  1  0  0  0  0
  9 10  1  0  0  0  0
 11  1  1  0  0  0  0
 12 13  1  0  0  0  0
 12 11  1  0  0  0  0
 13 14  2  0  0  0  0
 16 15  1  0  0  0  0
 16 13  1  0  0  0  0
M  END
>  <MODEL>
9

>  <REMARK>
 VINA RESULT:    -5.002      9.132     11.569
 INTER + INTRA:          -6.921
 INTER:                  -6.610
 INTRA:                  -0.311
 UNBOUND:                -0.311
  Name = CHEMBL226919
  8 active torsions:
  status: ('A' for Active; 'I' for Inactive)
    1  A    between atoms: C_1  and  O_2
    2  A    between atoms: O_2  and  C_3
    3  A    between atoms: C_3  and  C_5
    4  A    between atoms: C_5  and  C_6
    5  A    between atoms: C_6  and  C_7
    6  A    between atoms: C_10  and  O_11
    7  A    between atoms: C_12  and  O_13
    8  A    between atoms: O_13  and  C_14
                            x       y       z     vdW  Elec       q    Type
                         _______ _______ _______ _____ _____    ______ ____

>  <TORSDO>
F 6

>  <SCORE>
-5.002

>  <RMSD_LB>
9.132

>  <RMSD_UB>
11.569

$$$$
