CHEMBL76777
 OpenBabel10172500223D

 28 28  0  0  0  0  0  0  0  0999 V2000
  134.8450  134.8800  151.2280 C   0  0  0  0  0  0  0  0  0  0  0  0
  134.9470  135.6350  152.3360 C   0  0  0  0  0  3  0  0  0  0  0  0
  134.1690  135.5000  153.5230 N   0  0  0  0  0  0  0  0  0  0  0  0
  133.7660  134.3860  153.8770 O   0  0  0  0  0  0  0  0  0  0  0  0
  133.9180  136.5660  154.1170 O   0  0  0  0  0  0  0  0  0  0  0  0
  134.0050  133.8050  150.9780 N   0  0  0  0  0  0  0  0  0  0  0  0
  134.2990  132.9160  151.2820 H   0  0  0  0  0  0  0  0  0  0  0  0
  132.7180  133.8980  150.2980 C   0  0  0  0  0  2  0  0  0  0  0  0
  132.7140  133.4130  148.8470 C   0  0  0  0  0  2  0  0  0  0  0  0
  133.9890  132.5760  148.6250 C   0  0  0  0  0  2  0  0  0  0  0  0
  134.9230  133.1550  147.5710 C   0  0  0  0  0  2  0  0  0  0  0  0
  134.1340  133.8050  146.4280 C   0  0  0  0  0  2  0  0  0  0  0  0
  134.6600  133.3180  145.0810 C   0  0  0  0  0  2  0  0  0  0  0  0
  136.9330  133.6510  144.0890 C   0  0  0  0  0  1  0  0  0  0  0  0
  135.6090  134.3180  144.4280 C   0  0  0  0  0  2  0  0  0  0  0  0
  135.7170  135.3060  150.2270 N   0  0  0  0  0  0  0  0  0  0  0  0
  136.2530  134.6390  149.7410 H   0  0  0  0  0  0  0  0  0  0  0  0
  135.8560  136.7200  149.8850 C   0  0  0  0  0  2  0  0  0  0  0  0
  135.0560  136.9950  148.6390 C   0  0  0  0  0  0  0  0  0  0  0  0
  133.6580  136.9450  148.6810 C   0  0  0  0  0  3  0  0  0  0  0  0
  132.9100  137.1850  147.5300 C   0  0  0  0  0  3  0  0  0  0  0  0
  133.5480  137.4710  146.3170 C   0  0  0  0  0  0  0  0  0  0  0  0
  134.9410  137.5100  146.2430 C   0  0  0  0  0  0  0  0  0  0  0  0
  135.6840  137.2660  147.4080 C   0  0  0  0  0  3  0  0  0  0  0  0
  132.7610  137.7070  145.2200 O   0  0  0  0  0  0  0  0  0  0  0  0
  132.8140  137.1400  144.4760 H   0  0  0  0  0  0  0  0  0  0  0  0
  135.7290  137.7610  145.1490 O   0  0  0  0  0  0  0  0  0  0  0  0
  136.0760  139.1120  144.8720 C   0  0  0  0  0  1  0  0  0  0  0  0
  1  2  2  0  0  0  0
  2  3  1  0  0  0  0
  3  4  2  0  0  0  0
  3  5  2  0  0  0  0
  6  1  1  0  0  0  0
  6  7  1  0  0  0  0
  8  6  1  0  0  0  0
  9  8  1  0  0  0  0
 10  9  1  0  0  0  0
 11 10  1  0  0  0  0
 12 11  1  0  0  0  0
 13 12  1  0  0  0  0
 14 15  1  0  0  0  0
 15 13  1  0  0  0  0
 16  1  1  0  0  0  0
 17 16  1  0  0  0  0
 18 16  1  0  0  0  0
 19 20  1  0  0  0  0
 19 18  1  0  0  0  0
 21 20  2  0  0  0  0
 22 21  1  0  0  0  0
 23 22  2  0  0  0  0
 23 24  1  0  0  0  0
 24 19  2  0  0  0  0
 25 22  1  0  0  0  0
 26 25  1  0  0  0  0
 27 23  1  0  0  0  0
 28 27  1  0  0  0  0
M  END
>  <MODEL>
1

>  <REMARK>
 VINA RESULT:    -6.129      0.000      0.000
 INTER + INTRA:         -12.375
 INTER:                 -10.071
 INTRA:                  -2.304
 UNBOUND:                -1.408
  Name = CHEMBL76777
  16 active torsions:
  status: ('A' for Active; 'I' for Inactive)
    1  A    between atoms: C_1  and  C_2
    2  A    between atoms: C_2  and  C_3
    3  A    between atoms: C_3  and  C_4
    4  A    between atoms: C_4  and  C_5
    5  A    between atoms: C_5  and  C_6
    6  A    between atoms: C_6  and  C_7
    7  A    between atoms: C_7  and  C_8
    8  A    between atoms: C_8  and  N_9
    9  A    between atoms: N_9  and  C_10
   10  A    between atoms: C_10  and  N_15
   11  A    between atoms: C_11  and  N_12
   12  A    between atoms: N_15  and  C_16
   13  A    between atoms: C_16  and  C_17
   14  A    between atoms: C_20  and  O_21
   15  A    between atoms: C_22  and  O_23
   16  A    between atoms: O_23  and  C_24
                            x       y       z     vdW  Elec       q    Type
                         _______ _______ _______ _____ _____    ______ ____

>  <TORSDO>
F 14

>  <SCORE>
-6.129

>  <RMSD_LB>
0.000

>  <RMSD_UB>
0.000

$$$$
CHEMBL76777
 OpenBabel10172500223D

 28 28  0  0  0  0  0  0  0  0999 V2000
  134.5190  134.3500  152.2170 C   0  0  0  0  0  0  0  0  0  0  0  0
  133.5830  134.6520  153.1350 C   0  0  0  0  0  3  0  0  0  0  0  0
  133.7550  135.4990  154.2690 N   0  0  0  0  0  0  0  0  0  0  0  0
  134.0910  136.6780  154.1180 O   0  0  0  0  0  0  0  0  0  0  0  0
  133.5800  134.9480  155.3730 O   0  0  0  0  0  0  0  0  0  0  0  0
  135.8320  134.7890  152.1330 N   0  0  0  0  0  0  0  0  0  0  0  0
  136.3930  134.7080  152.9380 H   0  0  0  0  0  0  0  0  0  0  0  0
  136.4380  135.3630  150.9370 C   0  0  0  0  0  2  0  0  0  0  0  0
  137.2280  136.6530  151.1650 C   0  0  0  0  0  2  0  0  0  0  0  0
  137.3010  136.9020  152.6850 C   0  0  0  0  0  2  0  0  0  0  0  0
  138.4530  137.8070  153.1000 C   0  0  0  0  0  2  0  0  0  0  0  0
  139.4080  138.0610  151.9280 C   0  0  0  0  0  2  0  0  0  0  0  0
  140.8510  137.8110  152.3590 C   0  0  0  0  0  2  0  0  0  0  0  0
  140.8310  136.9060  150.0260 C   0  0  0  0  0  1  0  0  0  0  0  0
  141.6810  137.1500  151.2630 C   0  0  0  0  0  2  0  0  0  0  0  0
  134.0400  133.4550  151.2630 N   0  0  0  0  0  0  0  0  0  0  0  0
  134.4890  132.5860  151.1500 H   0  0  0  0  0  0  0  0  0  0  0  0
  132.8880  133.7760  150.4230 C   0  0  0  0  0  2  0  0  0  0  0  0
  133.3690  134.0120  149.0140 C   0  0  0  0  0  0  0  0  0  0  0  0
  133.0590  135.2100  148.3620 C   0  0  0  0  0  3  0  0  0  0  0  0
  133.4890  135.4310  147.0540 C   0  0  0  0  0  3  0  0  0  0  0  0
  134.2270  134.4540  146.3760 C   0  0  0  0  0  0  0  0  0  0  0  0
  134.5350  133.2420  146.9980 C   0  0  0  0  0  0  0  0  0  0  0  0
  134.0960  133.0310  148.3140 C   0  0  0  0  0  3  0  0  0  0  0  0
  134.6290  134.7300  145.0960 O   0  0  0  0  0  0  0  0  0  0  0  0
  134.0180  135.0810  144.4790 H   0  0  0  0  0  0  0  0  0  0  0  0
  135.2320  132.1770  146.4880 O   0  0  0  0  0  0  0  0  0  0  0  0
  136.6460  132.2870  146.3980 C   0  0  0  0  0  1  0  0  0  0  0  0
  1  2  2  0  0  0  0
  2  3  1  0  0  0  0
  3  5  2  0  0  0  0
  4  3  2  0  0  0  0
  6  1  1  0  0  0  0
  6  7  1  0  0  0  0
  8  9  1  0  0  0  0
  8  6  1  0  0  0  0
  9 10  1  0  0  0  0
 10 11  1  0  0  0  0
 12 13  1  0  0  0  0
 12 11  1  0  0  0  0
 14 15  1  0  0  0  0
 15 13  1  0  0  0  0
 16  1  1  0  0  0  0
 17 16  1  0  0  0  0
 18 16  1  0  0  0  0
 19 18  1  0  0  0  0
 20 19  1  0  0  0  0
 21 20  2  0  0  0  0
 22 23  2  0  0  0  0
 22 21  1  0  0  0  0
 23 24  1  0  0  0  0
 24 19  2  0  0  0  0
 25 22  1  0  0  0  0
 26 25  1  0  0  0  0
 27 23  1  0  0  0  0
 28 27  1  0  0  0  0
M  END
>  <MODEL>
2

>  <REMARK>
 VINA RESULT:    -6.094      2.919      5.342
 INTER + INTRA:         -12.312
 INTER:                 -10.942
 INTRA:                  -1.370
 UNBOUND:                -1.408
  Name = CHEMBL76777
  16 active torsions:
  status: ('A' for Active; 'I' for Inactive)
    1  A    between atoms: C_1  and  C_2
    2  A    between atoms: C_2  and  C_3
    3  A    between atoms: C_3  and  C_4
    4  A    between atoms: C_4  and  C_5
    5  A    between atoms: C_5  and  C_6
    6  A    between atoms: C_6  and  C_7
    7  A    between atoms: C_7  and  C_8
    8  A    between atoms: C_8  and  N_9
    9  A    between atoms: N_9  and  C_10
   10  A    between atoms: C_10  and  N_15
   11  A    between atoms: C_11  and  N_12
   12  A    between atoms: N_15  and  C_16
   13  A    between atoms: C_16  and  C_17
   14  A    between atoms: C_20  and  O_21
   15  A    between atoms: C_22  and  O_23
   16  A    between atoms: O_23  and  C_24
                            x       y       z     vdW  Elec       q    Type
                         _______ _______ _______ _____ _____    ______ ____

>  <TORSDO>
F 14

>  <SCORE>
-6.094

>  <RMSD_LB>
2.919

>  <RMSD_UB>
5.342

$$$$
CHEMBL76777
 OpenBabel10172500223D

 28 28  0  0  0  0  0  0  0  0999 V2000
  139.0450  138.6560  153.6790 C   0  0  0  0  0  0  0  0  0  0  0  0
  139.9430  138.1900  154.5650 C   0  0  0  0  0  3  0  0  0  0  0  0
  141.2990  138.6120  154.6930 N   0  0  0  0  0  0  0  0  0  0  0  0
  141.5710  139.6510  155.3030 O   0  0  0  0  0  0  0  0  0  0  0  0
  142.1360  137.8850  154.1230 O   0  0  0  0  0  0  0  0  0  0  0  0
  139.1990  139.6430  152.7180 N   0  0  0  0  0  0  0  0  0  0  0  0
  138.8570  140.5420  152.9270 H   0  0  0  0  0  0  0  0  0  0  0  0
  139.8290  139.4430  151.4180 C   0  0  0  0  0  2  0  0  0  0  0  0
  138.9870  139.8720  150.2150 C   0  0  0  0  0  2  0  0  0  0  0  0
  138.6360  138.6070  149.4080 C   0  0  0  0  0  2  0  0  0  0  0  0
  137.4540  137.8310  149.9750 C   0  0  0  0  0  2  0  0  0  0  0  0
  137.7860  136.3410  150.1150 C   0  0  0  0  0  2  0  0  0  0  0  0
  136.5840  135.4920  149.7070 C   0  0  0  0  0  2  0  0  0  0  0  0
  134.1270  135.8700  150.0000 C   0  0  0  0  0  1  0  0  0  0  0  0
  135.3860  136.3400  149.2890 C   0  0  0  0  0  2  0  0  0  0  0  0
  137.8210  137.9970  153.7850 N   0  0  0  0  0  0  0  0  0  0  0  0
  137.2470  137.9170  152.9900 H   0  0  0  0  0  0  0  0  0  0  0  0
  137.3690  137.4240  155.0520 C   0  0  0  0  0  2  0  0  0  0  0  0
  136.4390  136.2760  154.7560 C   0  0  0  0  0  0  0  0  0  0  0  0
  136.3720  135.7460  153.4630 C   0  0  0  0  0  3  0  0  0  0  0  0
  135.5050  134.6930  153.1770 C   0  0  0  0  0  3  0  0  0  0  0  0
  134.6850  134.1590  154.1780 C   0  0  0  0  0  0  0  0  0  0  0  0
  134.7190  134.6800  155.4720 C   0  0  0  0  0  0  0  0  0  0  0  0
  135.5950  135.7410  155.7480 C   0  0  0  0  0  3  0  0  0  0  0  0
  133.8590  133.1190  153.8410 O   0  0  0  0  0  0  0  0  0  0  0  0
  132.9660  133.2870  153.6090 H   0  0  0  0  0  0  0  0  0  0  0  0
  133.9860  134.2930  156.5660 O   0  0  0  0  0  0  0  0  0  0  0  0
  134.4090  134.7450  157.8450 C   0  0  0  0  0  1  0  0  0  0  0  0
  1 16  1  0  0  0  0
  1  2  2  0  0  0  0
  2  3  1  0  0  0  0
  3  4  2  0  0  0  0
  5  3  2  0  0  0  0
  6  7  1  0  0  0  0
  6  1  1  0  0  0  0
  8  6  1  0  0  0  0
  9  8  1  0  0  0  0
 10 11  1  0  0  0  0
 10  9  1  0  0  0  0
 11 12  1  0  0  0  0
 13 12  1  0  0  0  0
 15 13  1  0  0  0  0
 15 14  1  0  0  0  0
 16 18  1  0  0  0  0
 17 16  1  0  0  0  0
 19 18  1  0  0  0  0
 19 24  1  0  0  0  0
 20 19  2  0  0  0  0
 21 20  1  0  0  0  0
 21 22  2  0  0  0  0
 22 23  1  0  0  0  0
 23 24  2  0  0  0  0
 23 27  1  0  0  0  0
 25 22  1  0  0  0  0
 26 25  1  0  0  0  0
 27 28  1  0  0  0  0
M  END
>  <MODEL>
3

>  <REMARK>
 VINA RESULT:    -6.042      4.545      7.996
 INTER + INTRA:         -12.219
 INTER:                 -10.479
 INTRA:                  -1.739
 UNBOUND:                -1.408
  Name = CHEMBL76777
  16 active torsions:
  status: ('A' for Active; 'I' for Inactive)
    1  A    between atoms: C_1  and  C_2
    2  A    between atoms: C_2  and  C_3
    3  A    between atoms: C_3  and  C_4
    4  A    between atoms: C_4  and  C_5
    5  A    between atoms: C_5  and  C_6
    6  A    between atoms: C_6  and  C_7
    7  A    between atoms: C_7  and  C_8
    8  A    between atoms: C_8  and  N_9
    9  A    between atoms: N_9  and  C_10
   10  A    between atoms: C_10  and  N_15
   11  A    between atoms: C_11  and  N_12
   12  A    between atoms: N_15  and  C_16
   13  A    between atoms: C_16  and  C_17
   14  A    between atoms: C_20  and  O_21
   15  A    between atoms: C_22  and  O_23
   16  A    between atoms: O_23  and  C_24
                            x       y       z     vdW  Elec       q    Type
                         _______ _______ _______ _____ _____    ______ ____

>  <TORSDO>
F 14

>  <SCORE>
-6.042

>  <RMSD_LB>
4.545

>  <RMSD_UB>
7.996

$$$$
CHEMBL76777
 OpenBabel10172500223D

 28 28  0  0  0  0  0  0  0  0999 V2000
  139.7690  139.0460  154.0960 C   0  0  0  0  0  0  0  0  0  0  0  0
  139.2640  138.3940  155.1590 C   0  0  0  0  0  3  0  0  0  0  0  0
  137.8930  138.0700  155.3760 N   0  0  0  0  0  0  0  0  0  0  0  0
  137.5600  136.9020  155.6030 O   0  0  0  0  0  0  0  0  0  0  0  0
  137.1010  139.0270  155.2810 O   0  0  0  0  0  0  0  0  0  0  0  0
  139.1110  139.5270  152.9740 N   0  0  0  0  0  0  0  0  0  0  0  0
  138.7280  140.4320  153.0210 H   0  0  0  0  0  0  0  0  0  0  0  0
  138.9460  138.7850  151.7290 C   0  0  0  0  0  2  0  0  0  0  0  0
  138.3490  137.3850  151.8810 C   0  0  0  0  0  2  0  0  0  0  0  0
  137.3530  137.1670  150.7250 C   0  0  0  0  0  2  0  0  0  0  0  0
  136.7450  135.7700  150.6990 C   0  0  0  0  0  2  0  0  0  0  0  0
  135.6500  135.6240  151.7630 C   0  0  0  0  0  2  0  0  0  0  0  0
  135.8360  134.3200  152.5350 C   0  0  0  0  0  2  0  0  0  0  0  0
  134.7250  134.6370  154.7550 C   0  0  0  0  0  1  0  0  0  0  0  0
  134.6220  133.9720  153.3910 C   0  0  0  0  0  2  0  0  0  0  0  0
  141.1430  139.2470  154.2140 N   0  0  0  0  0  0  0  0  0  0  0  0
  141.4750  139.9910  154.7660 H   0  0  0  0  0  0  0  0  0  0  0  0
  142.1040  138.3780  153.5370 C   0  0  0  0  0  2  0  0  0  0  0  0
  142.9100  139.2100  152.5730 C   0  0  0  0  0  0  0  0  0  0  0  0
  142.4160  139.4660  151.2890 C   0  0  0  0  0  3  0  0  0  0  0  0
  143.1600  140.2230  150.3870 C   0  0  0  0  0  3  0  0  0  0  0  0
  144.4140  140.7300  150.7500 C   0  0  0  0  0  0  0  0  0  0  0  0
  144.9370  140.4740  152.0190 C   0  0  0  0  0  0  0  0  0  0  0  0
  144.1800  139.7100  152.9190 C   0  0  0  0  0  3  0  0  0  0  0  0
  145.0960  141.4740  149.8250 O   0  0  0  0  0  0  0  0  0  0  0  0
  145.8830  141.1390  149.4430 H   0  0  0  0  0  0  0  0  0  0  0  0
  146.1410  140.8760  152.5400 O   0  0  0  0  0  0  0  0  0  0  0  0
  146.2890  142.2430  152.9010 C   0  0  0  0  0  1  0  0  0  0  0  0
  1 16  1  0  0  0  0
  1  2  2  0  0  0  0
  2  3  1  0  0  0  0
  3  4  2  0  0  0  0
  5  3  2  0  0  0  0
  6  7  1  0  0  0  0
  6  1  1  0  0  0  0
  8  9  1  0  0  0  0
  8  6  1  0  0  0  0
 10  9  1  0  0  0  0
 11 10  1  0  0  0  0
 11 12  1  0  0  0  0
 12 13  1  0  0  0  0
 13 15  1  0  0  0  0
 15 14  1  0  0  0  0
 16 17  1  0  0  0  0
 18 16  1  0  0  0  0
 19 24  1  0  0  0  0
 19 18  1  0  0  0  0
 20 19  2  0  0  0  0
 21 22  2  0  0  0  0
 21 20  1  0  0  0  0
 22 23  1  0  0  0  0
 23 27  1  0  0  0  0
 23 24  2  0  0  0  0
 25 22  1  0  0  0  0
 26 25  1  0  0  0  0
 27 28  1  0  0  0  0
M  END
>  <MODEL>
4

>  <REMARK>
 VINA RESULT:    -6.038      7.020      9.014
 INTER + INTRA:         -12.212
 INTER:                 -11.050
 INTRA:                  -1.162
 UNBOUND:                -1.408
  Name = CHEMBL76777
  16 active torsions:
  status: ('A' for Active; 'I' for Inactive)
    1  A    between atoms: C_1  and  C_2
    2  A    between atoms: C_2  and  C_3
    3  A    between atoms: C_3  and  C_4
    4  A    between atoms: C_4  and  C_5
    5  A    between atoms: C_5  and  C_6
    6  A    between atoms: C_6  and  C_7
    7  A    between atoms: C_7  and  C_8
    8  A    between atoms: C_8  and  N_9
    9  A    between atoms: N_9  and  C_10
   10  A    between atoms: C_10  and  N_15
   11  A    between atoms: C_11  and  N_12
   12  A    between atoms: N_15  and  C_16
   13  A    between atoms: C_16  and  C_17
   14  A    between atoms: C_20  and  O_21
   15  A    between atoms: C_22  and  O_23
   16  A    between atoms: O_23  and  C_24
                            x       y       z     vdW  Elec       q    Type
                         _______ _______ _______ _____ _____    ______ ____

>  <TORSDO>
F 14

>  <SCORE>
-6.038

>  <RMSD_LB>
7.020

>  <RMSD_UB>
9.014

$$$$
CHEMBL76777
 OpenBabel10172500223D

 28 28  0  0  0  0  0  0  0  0999 V2000
  134.9730  135.6910  149.1680 C   0  0  0  0  0  0  0  0  0  0  0  0
  133.9380  134.8420  149.2980 C   0  0  0  0  0  3  0  0  0  0  0  0
  133.2230  134.2160  148.2350 N   0  0  0  0  0  0  0  0  0  0  0  0
  133.5510  134.4200  147.0610 O   0  0  0  0  0  0  0  0  0  0  0  0
  132.2590  133.5090  148.5880 O   0  0  0  0  0  0  0  0  0  0  0  0
  135.5980  136.1360  148.0130 N   0  0  0  0  0  0  0  0  0  0  0  0
  135.1460  136.8370  147.4890 H   0  0  0  0  0  0  0  0  0  0  0  0
  136.8760  135.6380  147.5180 C   0  0  0  0  0  2  0  0  0  0  0  0
  137.1520  134.1610  147.8040 C   0  0  0  0  0  2  0  0  0  0  0  0
  137.3150  133.4390  146.4520 C   0  0  0  0  0  2  0  0  0  0  0  0
  136.2680  132.3610  146.2060 C   0  0  0  0  0  2  0  0  0  0  0  0
  136.7760  131.3120  145.2110 C   0  0  0  0  0  2  0  0  0  0  0  0
  136.2560  131.6190  143.8090 C   0  0  0  0  0  2  0  0  0  0  0  0
  137.2460  133.3900  142.3430 C   0  0  0  0  0  1  0  0  0  0  0  0
  137.3780  131.9560  142.8310 C   0  0  0  0  0  2  0  0  0  0  0  0
  135.4140  136.1640  150.4030 N   0  0  0  0  0  0  0  0  0  0  0  0
  135.0440  137.0040  150.7570 H   0  0  0  0  0  0  0  0  0  0  0  0
  136.4170  135.4410  151.1840 C   0  0  0  0  0  2  0  0  0  0  0  0
  135.8470  135.1490  152.5470 C   0  0  0  0  0  0  0  0  0  0  0  0
  134.9790  134.0660  152.7230 C   0  0  0  0  0  3  0  0  0  0  0  0
  134.4360  133.7960  153.9790 C   0  0  0  0  0  3  0  0  0  0  0  0
  134.7460  134.6090  155.0750 C   0  0  0  0  0  0  0  0  0  0  0  0
  135.5960  135.7060  154.9230 C   0  0  0  0  0  0  0  0  0  0  0  0
  136.1350  135.9690  153.6540 C   0  0  0  0  0  3  0  0  0  0  0  0
  134.1900  134.2910  156.2860 O   0  0  0  0  0  0  0  0  0  0  0  0
  134.4340  133.4960  156.7190 H   0  0  0  0  0  0  0  0  0  0  0  0
  135.9980  136.6100  155.8730 O   0  0  0  0  0  0  0  0  0  0  0  0
  137.0220  137.5330  155.5250 C   0  0  0  0  0  1  0  0  0  0  0  0
  1  2  2  0  0  0  0
  1 16  1  0  0  0  0
  3  5  2  0  0  0  0
  3  2  1  0  0  0  0
  4  3  2  0  0  0  0
  6  1  1  0  0  0  0
  7  6  1  0  0  0  0
  8  9  1  0  0  0  0
  8  6  1  0  0  0  0
 10  9  1  0  0  0  0
 11 10  1  0  0  0  0
 12 11  1  0  0  0  0
 13 12  1  0  0  0  0
 14 15  1  0  0  0  0
 15 13  1  0  0  0  0
 16 17  1  0  0  0  0
 16 18  1  0  0  0  0
 18 19  1  0  0  0  0
 19 20  2  0  0  0  0
 19 24  1  0  0  0  0
 20 21  1  0  0  0  0
 21 22  2  0  0  0  0
 22 25  1  0  0  0  0
 23 22  1  0  0  0  0
 23 27  1  0  0  0  0
 24 23  2  0  0  0  0
 25 26  1  0  0  0  0
 28 27  1  0  0  0  0
M  END
>  <MODEL>
5

>  <REMARK>
 VINA RESULT:    -5.935      2.640      6.132
 INTER + INTRA:         -12.028
 INTER:                 -10.712
 INTRA:                  -1.316
 UNBOUND:                -1.408
  Name = CHEMBL76777
  16 active torsions:
  status: ('A' for Active; 'I' for Inactive)
    1  A    between atoms: C_1  and  C_2
    2  A    between atoms: C_2  and  C_3
    3  A    between atoms: C_3  and  C_4
    4  A    between atoms: C_4  and  C_5
    5  A    between atoms: C_5  and  C_6
    6  A    between atoms: C_6  and  C_7
    7  A    between atoms: C_7  and  C_8
    8  A    between atoms: C_8  and  N_9
    9  A    between atoms: N_9  and  C_10
   10  A    between atoms: C_10  and  N_15
   11  A    between atoms: C_11  and  N_12
   12  A    between atoms: N_15  and  C_16
   13  A    between atoms: C_16  and  C_17
   14  A    between atoms: C_20  and  O_21
   15  A    between atoms: C_22  and  O_23
   16  A    between atoms: O_23  and  C_24
                            x       y       z     vdW  Elec       q    Type
                         _______ _______ _______ _____ _____    ______ ____

>  <TORSDO>
F 14

>  <SCORE>
-5.935

>  <RMSD_LB>
2.640

>  <RMSD_UB>
6.132

$$$$
CHEMBL76777
 OpenBabel10172500223D

 28 28  0  0  0  0  0  0  0  0999 V2000
  145.9620  136.3360  149.6090 C   0  0  0  0  0  0  0  0  0  0  0  0
  145.1320  135.3330  149.2700 C   0  0  0  0  0  3  0  0  0  0  0  0
  144.2540  135.3070  148.1470 N   0  0  0  0  0  0  0  0  0  0  0  0
  144.6060  135.8060  147.0730 O   0  0  0  0  0  0  0  0  0  0  0  0
  143.1390  134.7930  148.3580 O   0  0  0  0  0  0  0  0  0  0  0  0
  146.1810  137.5430  148.9630 N   0  0  0  0  0  0  0  0  0  0  0  0
  146.9370  137.5940  148.3330 H   0  0  0  0  0  0  0  0  0  0  0  0
  145.3730  138.7420  149.1500 C   0  0  0  0  0  2  0  0  0  0  0  0
  146.1360  139.9660  149.6630 C   0  0  0  0  0  2  0  0  0  0  0  0
  145.3020  140.6060  150.7890 C   0  0  0  0  0  2  0  0  0  0  0  0
  145.4830  142.1140  150.9000 C   0  0  0  0  0  2  0  0  0  0  0  0
  146.5900  142.4670  151.8990 C   0  0  0  0  0  2  0  0  0  0  0  0
  146.2710  141.8790  153.2710 C   0  0  0  0  0  2  0  0  0  0  0  0
  148.7490  141.5330  153.3400 C   0  0  0  0  0  1  0  0  0  0  0  0
  147.5000  141.7920  154.1700 C   0  0  0  0  0  2  0  0  0  0  0  0
  146.6480  136.0650  150.7920 N   0  0  0  0  0  0  0  0  0  0  0  0
  146.3730  135.2960  151.3420 H   0  0  0  0  0  0  0  0  0  0  0  0
  147.7640  136.8980  151.2360 C   0  0  0  0  0  2  0  0  0  0  0  0
  147.4530  137.4290  152.6110 C   0  0  0  0  0  0  0  0  0  0  0  0
  148.4660  137.5160  153.5720 C   0  0  0  0  0  3  0  0  0  0  0  0
  148.1840  137.9930  154.8510 C   0  0  0  0  0  3  0  0  0  0  0  0
  146.8830  138.3830  155.1910 C   0  0  0  0  0  0  0  0  0  0  0  0
  145.8500  138.2900  154.2560 C   0  0  0  0  0  0  0  0  0  0  0  0
  146.1460  137.8070  152.9730 C   0  0  0  0  0  3  0  0  0  0  0  0
  146.6670  138.8520  156.4600 O   0  0  0  0  0  0  0  0  0  0  0  0
  147.1560  138.5010  157.1780 H   0  0  0  0  0  0  0  0  0  0  0  0
  144.5270  138.6130  154.4150 O   0  0  0  0  0  0  0  0  0  0  0  0
  143.5570  137.7810  153.7910 C   0  0  0  0  0  1  0  0  0  0  0  0
  1 16  1  0  0  0  0
  2  1  2  0  0  0  0
  3  5  2  0  0  0  0
  3  2  1  0  0  0  0
  4  3  2  0  0  0  0
  6  8  1  0  0  0  0
  6  1  1  0  0  0  0
  7  6  1  0  0  0  0
  8  9  1  0  0  0  0
  9 10  1  0  0  0  0
 10 11  1  0  0  0  0
 11 12  1  0  0  0  0
 12 13  1  0  0  0  0
 13 15  1  0  0  0  0
 14 15  1  0  0  0  0
 16 18  1  0  0  0  0
 16 17  1  0  0  0  0
 18 19  1  0  0  0  0
 19 24  2  0  0  0  0
 19 20  1  0  0  0  0
 20 21  2  0  0  0  0
 21 22  1  0  0  0  0
 22 25  1  0  0  0  0
 23 27  1  0  0  0  0
 23 22  2  0  0  0  0
 24 23  1  0  0  0  0
 25 26  1  0  0  0  0
 28 27  1  0  0  0  0
M  END
>  <MODEL>
6

>  <REMARK>
 VINA RESULT:    -5.894     11.274     14.026
 INTER + INTRA:         -11.954
 INTER:                  -9.587
 INTRA:                  -2.367
 UNBOUND:                -1.408
  Name = CHEMBL76777
  16 active torsions:
  status: ('A' for Active; 'I' for Inactive)
    1  A    between atoms: C_1  and  C_2
    2  A    between atoms: C_2  and  C_3
    3  A    between atoms: C_3  and  C_4
    4  A    between atoms: C_4  and  C_5
    5  A    between atoms: C_5  and  C_6
    6  A    between atoms: C_6  and  C_7
    7  A    between atoms: C_7  and  C_8
    8  A    between atoms: C_8  and  N_9
    9  A    between atoms: N_9  and  C_10
   10  A    between atoms: C_10  and  N_15
   11  A    between atoms: C_11  and  N_12
   12  A    between atoms: N_15  and  C_16
   13  A    between atoms: C_16  and  C_17
   14  A    between atoms: C_20  and  O_21
   15  A    between atoms: C_22  and  O_23
   16  A    between atoms: O_23  and  C_24
                            x       y       z     vdW  Elec       q    Type
                         _______ _______ _______ _____ _____    ______ ____

>  <TORSDO>
F 14

>  <SCORE>
-5.894

>  <RMSD_LB>
11.274

>  <RMSD_UB>
14.026

$$$$
CHEMBL76777
 OpenBabel10172500223D

 28 28  0  0  0  0  0  0  0  0999 V2000
  145.2890  140.0100  154.3570 C   0  0  0  0  0  0  0  0  0  0  0  0
  145.9420  138.9790  154.9240 C   0  0  0  0  0  3  0  0  0  0  0  0
  147.3070  138.9680  155.3330 N   0  0  0  0  0  0  0  0  0  0  0  0
  148.0810  139.8470  154.9370 O   0  0  0  0  0  0  0  0  0  0  0  0
  147.6350  138.0120  156.0610 O   0  0  0  0  0  0  0  0  0  0  0  0
  145.7560  141.2820  154.0610 N   0  0  0  0  0  0  0  0  0  0  0  0
  145.6220  141.9860  154.7360 H   0  0  0  0  0  0  0  0  0  0  0  0
  146.4300  141.6490  152.8210 C   0  0  0  0  0  2  0  0  0  0  0  0
  145.5370  142.3100  151.7680 C   0  0  0  0  0  2  0  0  0  0  0  0
  144.8540  141.1920  150.9580 C   0  0  0  0  0  2  0  0  0  0  0  0
  145.8140  140.1090  150.4830 C   0  0  0  0  0  2  0  0  0  0  0  0
  145.4400  139.6130  149.0810 C   0  0  0  0  0  2  0  0  0  0  0  0
  146.6760  139.5820  148.1860 C   0  0  0  0  0  2  0  0  0  0  0  0
  148.1840  138.1960  146.7480 C   0  0  0  0  0  1  0  0  0  0  0  0
  147.0620  138.1650  147.7740 C   0  0  0  0  0  2  0  0  0  0  0  0
  143.9750  139.6770  154.0320 N   0  0  0  0  0  0  0  0  0  0  0  0
  143.3700  140.3770  153.6970 H   0  0  0  0  0  0  0  0  0  0  0  0
  143.4740  138.3120  154.1790 C   0  0  0  0  0  2  0  0  0  0  0  0
  143.2470  137.7320  152.8070 C   0  0  0  0  0  0  0  0  0  0  0  0
  141.9640  137.7440  152.2470 C   0  0  0  0  0  3  0  0  0  0  0  0
  141.7420  137.1980  150.9840 C   0  0  0  0  0  3  0  0  0  0  0  0
  142.7970  136.6230  150.2650 C   0  0  0  0  0  0  0  0  0  0  0  0
  144.0820  136.5820  150.8080 C   0  0  0  0  0  0  0  0  0  0  0  0
  144.2930  137.1340  152.0800 C   0  0  0  0  0  3  0  0  0  0  0  0
  142.5210  136.1100  149.0260 O   0  0  0  0  0  0  0  0  0  0  0  0
  143.1290  136.2290  148.3230 H   0  0  0  0  0  0  0  0  0  0  0  0
  145.2230  136.0550  150.2570 O   0  0  0  0  0  0  0  0  0  0  0  0
  146.4510  136.2580  150.9430 C   0  0  0  0  0  1  0  0  0  0  0  0
  1  2  2  0  0  0  0
  2  3  1  0  0  0  0
  3  5  2  0  0  0  0
  4  3  2  0  0  0  0
  6  1  1  0  0  0  0
  6  7  1  0  0  0  0
  8  6  1  0  0  0  0
  9  8  1  0  0  0  0
 10  9  1  0  0  0  0
 11 10  1  0  0  0  0
 12 11  1  0  0  0  0
 13 12  1  0  0  0  0
 14 15  1  0  0  0  0
 15 13  1  0  0  0  0
 16 18  1  0  0  0  0
 16  1  1  0  0  0  0
 17 16  1  0  0  0  0
 19 18  1  0  0  0  0
 20 19  1  0  0  0  0
 21 20  2  0  0  0  0
 22 23  2  0  0  0  0
 22 21  1  0  0  0  0
 23 24  1  0  0  0  0
 24 19  2  0  0  0  0
 25 22  1  0  0  0  0
 26 25  1  0  0  0  0
 27 23  1  0  0  0  0
 27 28  1  0  0  0  0
M  END
>  <MODEL>
7

>  <REMARK>
 VINA RESULT:    -5.827     10.563     12.302
 INTER + INTRA:         -11.834
 INTER:                 -10.010
 INTRA:                  -1.824
 UNBOUND:                -1.408
  Name = CHEMBL76777
  16 active torsions:
  status: ('A' for Active; 'I' for Inactive)
    1  A    between atoms: C_1  and  C_2
    2  A    between atoms: C_2  and  C_3
    3  A    between atoms: C_3  and  C_4
    4  A    between atoms: C_4  and  C_5
    5  A    between atoms: C_5  and  C_6
    6  A    between atoms: C_6  and  C_7
    7  A    between atoms: C_7  and  C_8
    8  A    between atoms: C_8  and  N_9
    9  A    between atoms: N_9  and  C_10
   10  A    between atoms: C_10  and  N_15
   11  A    between atoms: C_11  and  N_12
   12  A    between atoms: N_15  and  C_16
   13  A    between atoms: C_16  and  C_17
   14  A    between atoms: C_20  and  O_21
   15  A    between atoms: C_22  and  O_23
   16  A    between atoms: O_23  and  C_24
                            x       y       z     vdW  Elec       q    Type
                         _______ _______ _______ _____ _____    ______ ____

>  <TORSDO>
F 14

>  <SCORE>
-5.827

>  <RMSD_LB>
10.563

>  <RMSD_UB>
12.302

$$$$
CHEMBL76777
 OpenBabel10172500223D

 28 28  0  0  0  0  0  0  0  0999 V2000
  145.3150  140.4560  149.1020 C   0  0  0  0  0  0  0  0  0  0  0  0
  146.1120  140.4440  148.0180 C   0  0  0  0  0  3  0  0  0  0  0  0
  146.2830  139.3590  147.1090 N   0  0  0  0  0  0  0  0  0  0  0  0
  145.3030  138.7120  146.7240 O   0  0  0  0  0  0  0  0  0  0  0  0
  147.4620  139.1160  146.7890 O   0  0  0  0  0  0  0  0  0  0  0  0
  144.4730  139.4620  149.5770 N   0  0  0  0  0  0  0  0  0  0  0  0
  143.5380  139.4700  149.2690 H   0  0  0  0  0  0  0  0  0  0  0  0
  144.8740  138.4080  150.5010 C   0  0  0  0  0  2  0  0  0  0  0  0
  143.9270  137.2080  150.5680 C   0  0  0  0  0  2  0  0  0  0  0  0
  143.4660  137.0500  152.0300 C   0  0  0  0  0  2  0  0  0  0  0  0
  142.2050  137.8380  152.3610 C   0  0  0  0  0  2  0  0  0  0  0  0
  141.0610  137.4780  151.4060 C   0  0  0  0  0  2  0  0  0  0  0  0
  139.7170  137.6240  152.1140 C   0  0  0  0  0  2  0  0  0  0  0  0
  138.5010  138.4580  154.1370 C   0  0  0  0  0  1  0  0  0  0  0  0
  139.8640  138.1340  153.5450 C   0  0  0  0  0  2  0  0  0  0  0  0
  145.4160  141.6540  149.8060 N   0  0  0  0  0  0  0  0  0  0  0  0
  144.6080  142.0410  150.2160 H   0  0  0  0  0  0  0  0  0  0  0  0
  146.6920  142.3520  149.9500 C   0  0  0  0  0  2  0  0  0  0  0  0
  147.2770  142.0150  151.2970 C   0  0  0  0  0  0  0  0  0  0  0  0
  148.6350  142.2450  151.5450 C   0  0  0  0  0  3  0  0  0  0  0  0
  149.1880  141.9230  152.7840 C   0  0  0  0  0  3  0  0  0  0  0  0
  148.3940  141.3590  153.7900 C   0  0  0  0  0  0  0  0  0  0  0  0
  147.0410  141.1040  153.5610 C   0  0  0  0  0  0  0  0  0  0  0  0
  146.4960  141.4300  152.3110 C   0  0  0  0  0  3  0  0  0  0  0  0
  148.9900  141.0720  154.9890 O   0  0  0  0  0  0  0  0  0  0  0  0
  148.6730  140.3610  155.5110 H   0  0  0  0  0  0  0  0  0  0  0  0
  146.1220  140.5520  154.4180 O   0  0  0  0  0  0  0  0  0  0  0  0
  144.9350  140.0050  153.8610 C   0  0  0  0  0  1  0  0  0  0  0  0
  1  6  1  0  0  0  0
  1 16  1  0  0  0  0
  2  1  2  0  0  0  0
  3  2  1  0  0  0  0
  4  3  2  0  0  0  0
  5  3  2  0  0  0  0
  6  8  1  0  0  0  0
  7  6  1  0  0  0  0
  8  9  1  0  0  0  0
  9 10  1  0  0  0  0
 10 11  1  0  0  0  0
 12 13  1  0  0  0  0
 12 11  1  0  0  0  0
 13 15  1  0  0  0  0
 15 14  1  0  0  0  0
 16 18  1  0  0  0  0
 16 17  1  0  0  0  0
 18 19  1  0  0  0  0
 19 20  2  0  0  0  0
 19 24  1  0  0  0  0
 20 21  1  0  0  0  0
 21 22  2  0  0  0  0
 22 25  1  0  0  0  0
 23 22  1  0  0  0  0
 23 27  1  0  0  0  0
 24 23  2  0  0  0  0
 25 26  1  0  0  0  0
 28 27  1  0  0  0  0
M  END
>  <MODEL>
8

>  <REMARK>
 VINA RESULT:    -5.776     10.810     13.405
 INTER + INTRA:         -11.742
 INTER:                 -10.334
 INTRA:                  -1.408
 UNBOUND:                -1.408
  Name = CHEMBL76777
  16 active torsions:
  status: ('A' for Active; 'I' for Inactive)
    1  A    between atoms: C_1  and  C_2
    2  A    between atoms: C_2  and  C_3
    3  A    between atoms: C_3  and  C_4
    4  A    between atoms: C_4  and  C_5
    5  A    between atoms: C_5  and  C_6
    6  A    between atoms: C_6  and  C_7
    7  A    between atoms: C_7  and  C_8
    8  A    between atoms: C_8  and  N_9
    9  A    between atoms: N_9  and  C_10
   10  A    between atoms: C_10  and  N_15
   11  A    between atoms: C_11  and  N_12
   12  A    between atoms: N_15  and  C_16
   13  A    between atoms: C_16  and  C_17
   14  A    between atoms: C_20  and  O_21
   15  A    between atoms: C_22  and  O_23
   16  A    between atoms: O_23  and  C_24
                            x       y       z     vdW  Elec       q    Type
                         _______ _______ _______ _____ _____    ______ ____

>  <TORSDO>
F 14

>  <SCORE>
-5.776

>  <RMSD_LB>
10.810

>  <RMSD_UB>
13.405

$$$$
CHEMBL76777
 OpenBabel10172500223D

 28 28  0  0  0  0  0  0  0  0999 V2000
  135.1670  135.5710  154.5620 C   0  0  0  0  0  0  0  0  0  0  0  0
  134.4520  134.6770  155.2680 C   0  0  0  0  0  3  0  0  0  0  0  0
  134.3740  134.5930  156.6890 N   0  0  0  0  0  0  0  0  0  0  0  0
  133.3150  134.2660  157.2350 O   0  0  0  0  0  0  0  0  0  0  0  0
  135.4170  134.9030  157.2960 O   0  0  0  0  0  0  0  0  0  0  0  0
  135.9600  136.6120  155.0200 N   0  0  0  0  0  0  0  0  0  0  0  0
  135.5100  137.3780  155.4430 H   0  0  0  0  0  0  0  0  0  0  0  0
  137.4150  136.6510  154.9180 C   0  0  0  0  0  2  0  0  0  0  0  0
  138.0240  138.0540  154.8630 C   0  0  0  0  0  2  0  0  0  0  0  0
  139.1080  138.1420  155.9550 C   0  0  0  0  0  2  0  0  0  0  0  0
  140.4780  137.6600  155.4930 C   0  0  0  0  0  2  0  0  0  0  0  0
  141.2290  138.7640  154.7410 C   0  0  0  0  0  2  0  0  0  0  0  0
  141.9210  138.1860  153.5100 C   0  0  0  0  0  2  0  0  0  0  0  0
  140.5870  138.5810  151.4290 C   0  0  0  0  0  1  0  0  0  0  0  0
  140.9350  137.5770  152.5180 C   0  0  0  0  0  2  0  0  0  0  0  0
  135.0650  135.3490  153.1890 N   0  0  0  0  0  0  0  0  0  0  0  0
  135.7320  134.7790  152.7430 H   0  0  0  0  0  0  0  0  0  0  0  0
  133.9920  135.9450  152.3960 C   0  0  0  0  0  2  0  0  0  0  0  0
  133.8130  135.1320  151.1400 C   0  0  0  0  0  0  0  0  0  0  0  0
  134.0150  133.7480  151.1690 C   0  0  0  0  0  3  0  0  0  0  0  0
  133.8640  132.9900  150.0090 C   0  0  0  0  0  3  0  0  0  0  0  0
  133.5180  133.6050  148.8000 C   0  0  0  0  0  0  0  0  0  0  0  0
  133.3290  134.9870  148.7400 C   0  0  0  0  0  0  0  0  0  0  0  0
  133.4840  135.7390  149.9140 C   0  0  0  0  0  3  0  0  0  0  0  0
  133.3760  132.8090  147.6950 O   0  0  0  0  0  0  0  0  0  0  0  0
  133.0720  131.9280  147.7880 H   0  0  0  0  0  0  0  0  0  0  0  0
  133.0000  135.7550  147.6510 O   0  0  0  0  0  0  0  0  0  0  0  0
  132.4710  137.0530  147.8850 C   0  0  0  0  0  1  0  0  0  0  0  0
  1  6  1  0  0  0  0
  1  2  2  0  0  0  0
  2  3  1  0  0  0  0
  3  4  2  0  0  0  0
  3  5  2  0  0  0  0
  6  7  1  0  0  0  0
  8  6  1  0  0  0  0
  9  8  1  0  0  0  0
  9 10  1  0  0  0  0
 11 10  1  0  0  0  0
 12 11  1  0  0  0  0
 13 12  1  0  0  0  0
 14 15  1  0  0  0  0
 15 13  1  0  0  0  0
 16  1  1  0  0  0  0
 17 16  1  0  0  0  0
 18 16  1  0  0  0  0
 19 20  1  0  0  0  0
 19 18  1  0  0  0  0
 21 20  2  0  0  0  0
 22 21  1  0  0  0  0
 23 22  2  0  0  0  0
 23 24  1  0  0  0  0
 24 19  2  0  0  0  0
 25 26  1  0  0  0  0
 25 22  1  0  0  0  0
 27 28  1  0  0  0  0
 27 23  1  0  0  0  0
M  END
>  <MODEL>
9

>  <REMARK>
 VINA RESULT:    -5.690      3.992      6.731
 INTER + INTRA:         -11.590
 INTER:                 -10.416
 INTRA:                  -1.173
 UNBOUND:                -1.408
  Name = CHEMBL76777
  16 active torsions:
  status: ('A' for Active; 'I' for Inactive)
    1  A    between atoms: C_1  and  C_2
    2  A    between atoms: C_2  and  C_3
    3  A    between atoms: C_3  and  C_4
    4  A    between atoms: C_4  and  C_5
    5  A    between atoms: C_5  and  C_6
    6  A    between atoms: C_6  and  C_7
    7  A    between atoms: C_7  and  C_8
    8  A    between atoms: C_8  and  N_9
    9  A    between atoms: N_9  and  C_10
   10  A    between atoms: C_10  and  N_15
   11  A    between atoms: C_11  and  N_12
   12  A    between atoms: N_15  and  C_16
   13  A    between atoms: C_16  and  C_17
   14  A    between atoms: C_20  and  O_21
   15  A    between atoms: C_22  and  O_23
   16  A    between atoms: O_23  and  C_24
                            x       y       z     vdW  Elec       q    Type
                         _______ _______ _______ _____ _____    ______ ____

>  <TORSDO>
F 14

>  <SCORE>
-5.690

>  <RMSD_LB>
3.992

>  <RMSD_UB>
6.731

$$$$
