CHEMBL4797414
 OpenBabel10172500193D

 27 28  0  0  1  0  0  0  0  0999 V2000
  138.0750  137.0770  155.2160 N   0  0  0  0  0  0  0  0  0  0  0  0
  138.3610  138.3990  154.9340 C   0  0  0  0  0  0  0  0  0  0  0  0
  137.4910  139.2700  154.9290 O   0  0  0  0  0  0  0  0  0  0  0  0
  138.7850  136.3960  155.1860 H   0  0  0  0  0  0  0  0  0  0  0  0
  139.8370  138.6890  154.6460 C   0  0  1  0  0  3  0  0  0  0  0  0
  140.7270  138.0920  155.7400 C   0  0  0  0  0  1  0  0  0  0  0  0
  140.3040  138.2010  153.2830 C   0  0  0  0  0  0  0  0  0  0  0  0
  141.6560  137.8670  153.1020 C   0  0  0  0  0  3  0  0  0  0  0  0
  142.1140  137.3450  151.8890 C   0  0  0  0  0  3  0  0  0  0  0  0
  141.2240  137.1340  150.8280 C   0  0  0  0  0  0  0  0  0  0  0  0
  139.8790  137.4770  151.0030 C   0  0  0  0  0  3  0  0  0  0  0  0
  139.4200  137.9940  152.2170 C   0  0  0  0  0  3  0  0  0  0  0  0
  141.6810  136.5510  149.5120 C   0  0  0  0  0  2  0  0  0  0  0  0
  143.1890  136.2430  149.4140 C   0  0  0  0  0  3  0  0  0  0  0  0
  143.4710  134.8560  148.8290 C   0  0  0  0  0  1  0  0  0  0  0  0
  143.8670  137.3060  148.5450 C   0  0  0  0  0  1  0  0  0  0  0  0
  136.7240  136.7060  155.5580 C   0  0  0  0  0  2  0  0  0  0  0  0
  134.7400  134.4240  152.4590 C   0  0  0  0  0  0  0  0  0  0  0  0
  135.5140  135.5420  152.1320 C   0  0  0  0  0  3  0  0  0  0  0  0
  136.1690  136.2740  153.1300 C   0  0  0  0  0  3  0  0  0  0  0  0
  136.0490  135.9090  154.4770 C   0  0  0  0  0  0  0  0  0  0  0  0
  135.2780  134.7860  154.8080 C   0  0  0  0  0  3  0  0  0  0  0  0
  134.6290  134.0580  153.8080 C   0  0  0  0  0  0  0  0  0  0  0  0
  133.0320  134.2760  150.8090 C   0  0  0  0  0  1  0  0  0  0  0  0
  134.0660  133.6470  151.5540 O   0  0  0  0  0  0  0  0  0  0  0  0
  133.8680  132.9740  154.1500 O   0  0  0  0  0  0  0  0  0  0  0  0
  134.0340  132.1410  153.7540 H   0  0  0  0  0  0  0  0  0  0  0  0
  1 17  1  0  0  0  0
  2  1  1  0  0  0  0
  3  2  2  0  0  0  0
  4  1  1  0  0  0  0
  5  2  1  0  0  0  0
  5  6  1  1  0  0  0
  7  5  1  0  0  0  0
  8  7  1  0  0  0  0
  9  8  2  0  0  0  0
 10 11  2  0  0  0  0
 10  9  1  0  0  0  0
 11 12  1  0  0  0  0
 12  7  2  0  0  0  0
 13 10  1  0  0  0  0
 14 13  1  0  0  0  0
 15 14  1  0  0  0  0
 16 14  1  0  0  0  0
 18 23  1  0  0  0  0
 19 18  2  0  0  0  0
 19 20  1  0  0  0  0
 20 21  2  0  0  0  0
 21 22  1  0  0  0  0
 21 17  1  0  0  0  0
 23 26  1  0  0  0  0
 23 22  2  0  0  0  0
 24 25  1  0  0  0  0
 25 18  1  0  0  0  0
 27 26  1  0  0  0  0
M  END
>  <MODEL>
1

>  <REMARK>
 VINA RESULT:    -7.868      0.000      0.000
 INTER + INTRA:         -12.432
 INTER:                 -11.253
 INTRA:                  -1.180
 UNBOUND:                -1.115
  Name = CHEMBL4797414
  12 active torsions:
  status: ('A' for Active; 'I' for Inactive)
    1  A    between atoms: C_1  and  O_2
    2  A    between atoms: O_2  and  C_3
    3  A    between atoms: C_6  and  C_7
    4  A    between atoms: C_7  and  N_8
    5  A    between atoms: C_9  and  C_11
    6  A    between atoms: C_11  and  C_12
    7  A    between atoms: C_11  and  C_13
    8  A    between atoms: C_16  and  C_17
    9  A    between atoms: C_17  and  C_18
   10  A    between atoms: C_18  and  C_19
   11  A    between atoms: C_18  and  C_20
   12  A    between atoms: C_24  and  O_25
                            x       y       z     vdW  Elec       q    Type
                         _______ _______ _______ _____ _____    ______ ____

>  <TORSDO>
F 8

>  <SCORE>
-7.868

>  <RMSD_LB>
0.000

>  <RMSD_UB>
0.000

$$$$
CHEMBL4797414
 OpenBabel10172500193D

 27 28  0  0  1  0  0  0  0  0999 V2000
  137.8650  137.0870  154.1640 N   0  0  0  0  0  0  0  0  0  0  0  0
  136.7620  136.9130  154.9770 C   0  0  0  0  0  0  0  0  0  0  0  0
  136.2630  137.8450  155.6090 O   0  0  0  0  0  0  0  0  0  0  0  0
  138.2610  136.3190  153.6910 H   0  0  0  0  0  0  0  0  0  0  0  0
  136.2090  135.4850  155.0130 C   0  0  1  0  0  3  0  0  0  0  0  0
  135.3960  135.2550  156.2890 C   0  0  0  0  0  1  0  0  0  0  0  0
  135.3700  135.1210  153.7980 C   0  0  0  0  0  0  0  0  0  0  0  0
  135.9500  134.3620  152.7690 C   0  0  0  0  0  3  0  0  0  0  0  0
  135.1960  133.9430  151.6690 C   0  0  0  0  0  3  0  0  0  0  0  0
  133.8360  134.2660  151.5790 C   0  0  0  0  0  0  0  0  0  0  0  0
  133.2590  135.0320  152.5980 C   0  0  0  0  0  3  0  0  0  0  0  0
  134.0110  135.4470  153.6990 C   0  0  0  0  0  3  0  0  0  0  0  0
  132.9860  133.8090  150.4160 C   0  0  0  0  0  2  0  0  0  0  0  0
  133.4470  134.3000  149.0290 C   0  0  0  0  0  3  0  0  0  0  0  0
  132.7630  133.5530  147.8810 C   0  0  0  0  0  1  0  0  0  0  0  0
  133.1590  135.7990  148.9000 C   0  0  0  0  0  1  0  0  0  0  0  0
  138.4300  138.4050  154.0130 C   0  0  0  0  0  2  0  0  0  0  0  0
  142.7300  138.3050  153.5200 C   0  0  0  0  0  0  0  0  0  0  0  0
  141.8890  137.7970  152.5240 C   0  0  0  0  0  3  0  0  0  0  0  0
  140.4980  137.8410  152.6740 C   0  0  0  0  0  3  0  0  0  0  0  0
  139.9220  138.3810  153.8300 C   0  0  0  0  0  0  0  0  0  0  0  0
  140.7610  138.8960  154.8270 C   0  0  0  0  0  3  0  0  0  0  0  0
  142.1480  138.8520  154.6720 C   0  0  0  0  0  0  0  0  0  0  0  0
  144.7030  139.2370  152.5710 C   0  0  0  0  0  1  0  0  0  0  0  0
  144.0990  138.3080  153.4610 O   0  0  0  0  0  0  0  0  0  0  0  0
  142.9530  139.3450  155.6620 O   0  0  0  0  0  0  0  0  0  0  0  0
  142.6150  139.9700  156.2740 H   0  0  0  0  0  0  0  0  0  0  0  0
  1  2  1  0  0  0  0
  2  5  1  0  0  0  0
  2  3  2  0  0  0  0
  4  1  1  0  0  0  0
  5  6  1  1  0  0  0
  7  5  1  0  0  0  0
  8  7  2  0  0  0  0
  9  8  1  0  0  0  0
 10  9  2  0  0  0  0
 10 11  1  0  0  0  0
 11 12  2  0  0  0  0
 12  7  1  0  0  0  0
 13 10  1  0  0  0  0
 14 13  1  0  0  0  0
 15 14  1  0  0  0  0
 16 14  1  0  0  0  0
 17  1  1  0  0  0  0
 18 23  1  0  0  0  0
 19 20  1  0  0  0  0
 19 18  2  0  0  0  0
 20 21  2  0  0  0  0
 21 17  1  0  0  0  0
 21 22  1  0  0  0  0
 23 22  2  0  0  0  0
 23 26  1  0  0  0  0
 24 25  1  0  0  0  0
 25 18  1  0  0  0  0
 26 27  1  0  0  0  0
M  END
>  <MODEL>
2

>  <REMARK>
 VINA RESULT:    -7.609      2.588      7.744
 INTER + INTRA:         -12.060
 INTER:                 -11.160
 INTRA:                  -0.900
 UNBOUND:                -1.115
  Name = CHEMBL4797414
  12 active torsions:
  status: ('A' for Active; 'I' for Inactive)
    1  A    between atoms: C_1  and  O_2
    2  A    between atoms: O_2  and  C_3
    3  A    between atoms: C_6  and  C_7
    4  A    between atoms: C_7  and  N_8
    5  A    between atoms: C_9  and  C_11
    6  A    between atoms: C_11  and  C_12
    7  A    between atoms: C_11  and  C_13
    8  A    between atoms: C_16  and  C_17
    9  A    between atoms: C_17  and  C_18
   10  A    between atoms: C_18  and  C_19
   11  A    between atoms: C_18  and  C_20
   12  A    between atoms: C_24  and  O_25
                            x       y       z     vdW  Elec       q    Type
                         _______ _______ _______ _____ _____    ______ ____

>  <TORSDO>
F 8

>  <SCORE>
-7.609

>  <RMSD_LB>
2.588

>  <RMSD_UB>
7.744

$$$$
CHEMBL4797414
 OpenBabel10172500193D

 27 28  0  0  1  0  0  0  0  0999 V2000
  144.4190  139.9540  153.9570 N   0  0  0  0  0  0  0  0  0  0  0  0
  145.7610  140.2070  154.1610 C   0  0  0  0  0  0  0  0  0  0  0  0
  146.4990  139.4000  154.7270 O   0  0  0  0  0  0  0  0  0  0  0  0
  143.8450  140.6290  153.5260 H   0  0  0  0  0  0  0  0  0  0  0  0
  146.2520  141.5520  153.6180 C   0  0  1  0  0  3  0  0  0  0  0  0
  147.6000  141.9250  154.2400 C   0  0  0  0  0  1  0  0  0  0  0  0
  146.3580  141.5990  152.1010 C   0  0  0  0  0  0  0  0  0  0  0  0
  146.8480  140.4770  151.4140 C   0  0  0  0  0  3  0  0  0  0  0  0
  146.8940  140.4510  150.0170 C   0  0  0  0  0  3  0  0  0  0  0  0
  146.4380  141.5450  149.2720 C   0  0  0  0  0  0  0  0  0  0  0  0
  145.9590  142.6680  149.9560 C   0  0  0  0  0  3  0  0  0  0  0  0
  145.9090  142.6940  151.3510 C   0  0  0  0  0  3  0  0  0  0  0  0
  146.4510  141.5390  147.7620 C   0  0  0  0  0  2  0  0  0  0  0  0
  145.9910  140.2230  147.1030 C   0  0  0  0  0  3  0  0  0  0  0  0
  144.8010  140.4200  146.1590 C   0  0  0  0  0  1  0  0  0  0  0  0
  147.1600  139.6120  146.3230 C   0  0  0  0  0  1  0  0  0  0  0  0
  143.8660  138.6910  154.3790 C   0  0  0  0  0  2  0  0  0  0  0  0
  139.8480  138.0840  152.8850 C   0  0  0  0  0  0  0  0  0  0  0  0
  140.9480  137.5700  152.1910 C   0  0  0  0  0  3  0  0  0  0  0  0
  142.2480  137.7530  152.6790 C   0  0  0  0  0  3  0  0  0  0  0  0
  142.4720  138.4650  153.8630 C   0  0  0  0  0  0  0  0  0  0  0  0
  141.3720  138.9760  154.5640 C   0  0  0  0  0  3  0  0  0  0  0  0
  140.0770  138.7900  154.0750 C   0  0  0  0  0  0  0  0  0  0  0  0
  138.3150  137.4220  151.1910 C   0  0  0  0  0  1  0  0  0  0  0  0
  138.5430  137.9550  152.4880 O   0  0  0  0  0  0  0  0  0  0  0  0
  139.0160  139.3090  154.7640 O   0  0  0  0  0  0  0  0  0  0  0  0
  138.1470  139.2180  154.4240 H   0  0  0  0  0  0  0  0  0  0  0  0
  1  2  1  0  0  0  0
  1 17  1  0  0  0  0
  2  3  2  0  0  0  0
  4  1  1  0  0  0  0
  5  2  1  0  0  0  0
  5  6  1  1  0  0  0
  7  5  1  0  0  0  0
  8  7  1  0  0  0  0
  9  8  2  0  0  0  0
 10 11  2  0  0  0  0
 10  9  1  0  0  0  0
 11 12  1  0  0  0  0
 12  7  2  0  0  0  0
 13 10  1  0  0  0  0
 14 13  1  0  0  0  0
 15 14  1  0  0  0  0
 16 14  1  0  0  0  0
 18 23  1  0  0  0  0
 19 20  1  0  0  0  0
 19 18  2  0  0  0  0
 20 21  2  0  0  0  0
 21 17  1  0  0  0  0
 21 22  1  0  0  0  0
 23 22  2  0  0  0  0
 23 26  1  0  0  0  0
 24 25  1  0  0  0  0
 25 18  1  0  0  0  0
 27 26  1  0  0  0  0
M  END
>  <MODEL>
3

>  <REMARK>
 VINA RESULT:    -7.425      4.621      6.971
 INTER + INTRA:         -11.795
 INTER:                 -10.907
 INTRA:                  -0.888
 UNBOUND:                -1.115
  Name = CHEMBL4797414
  12 active torsions:
  status: ('A' for Active; 'I' for Inactive)
    1  A    between atoms: C_1  and  O_2
    2  A    between atoms: O_2  and  C_3
    3  A    between atoms: C_6  and  C_7
    4  A    between atoms: C_7  and  N_8
    5  A    between atoms: C_9  and  C_11
    6  A    between atoms: C_11  and  C_12
    7  A    between atoms: C_11  and  C_13
    8  A    between atoms: C_16  and  C_17
    9  A    between atoms: C_17  and  C_18
   10  A    between atoms: C_18  and  C_19
   11  A    between atoms: C_18  and  C_20
   12  A    between atoms: C_24  and  O_25
                            x       y       z     vdW  Elec       q    Type
                         _______ _______ _______ _____ _____    ______ ____

>  <TORSDO>
F 8

>  <SCORE>
-7.425

>  <RMSD_LB>
4.621

>  <RMSD_UB>
6.971

$$$$
CHEMBL4797414
 OpenBabel10172500193D

 27 28  0  0  1  0  0  0  0  0999 V2000
  141.4480  138.6320  151.1140 N   0  0  0  0  0  0  0  0  0  0  0  0
  141.9710  139.5570  150.2310 C   0  0  0  0  0  0  0  0  0  0  0  0
  141.2670  140.3990  149.6730 O   0  0  0  0  0  0  0  0  0  0  0  0
  142.0290  137.9520  151.5250 H   0  0  0  0  0  0  0  0  0  0  0  0
  143.4840  139.4570  150.0180 C   0  0  1  0  0  3  0  0  0  0  0  0
  143.8630  139.9280  148.6110 C   0  0  0  0  0  1  0  0  0  0  0  0
  144.3000  140.2200  151.0500 C   0  0  0  0  0  0  0  0  0  0  0  0
  144.6060  139.6020  152.2730 C   0  0  0  0  0  3  0  0  0  0  0  0
  145.4140  140.2370  153.2200 C   0  0  0  0  0  3  0  0  0  0  0  0
  145.9470  141.5060  152.9600 C   0  0  0  0  0  0  0  0  0  0  0  0
  145.6350  142.1280  151.7460 C   0  0  0  0  0  3  0  0  0  0  0  0
  144.8310  141.4910  150.7970 C   0  0  0  0  0  3  0  0  0  0  0  0
  146.8430  142.2100  153.9500 C   0  0  0  0  0  2  0  0  0  0  0  0
  148.3260  141.7870  153.9170 C   0  0  0  0  0  3  0  0  0  0  0  0
  148.5510  140.3790  154.4730 C   0  0  0  0  0  1  0  0  0  0  0  0
  148.8370  141.8490  152.4740 C   0  0  0  0  0  1  0  0  0  0  0  0
  140.0410  138.6760  151.4300 C   0  0  0  0  0  2  0  0  0  0  0  0
  139.2330  137.8400  155.6000 C   0  0  0  0  0  0  0  0  0  0  0  0
  138.2460  137.6340  154.6310 C   0  0  0  0  0  3  0  0  0  0  0  0
  138.5080  137.8900  153.2800 C   0  0  0  0  0  3  0  0  0  0  0  0
  139.7600  138.3700  152.8750 C   0  0  0  0  0  0  0  0  0  0  0  0
  140.7530  138.5720  153.8420 C   0  0  0  0  0  3  0  0  0  0  0  0
  140.4880  138.3130  155.1880 C   0  0  0  0  0  0  0  0  0  0  0  0
  137.7720  137.8290  157.4780 C   0  0  0  0  0  1  0  0  0  0  0  0
  139.0710  137.6160  156.9420 O   0  0  0  0  0  0  0  0  0  0  0  0
  141.4640  138.5300  156.1220 O   0  0  0  0  0  0  0  0  0  0  0  0
  142.3450  138.2620  155.9500 H   0  0  0  0  0  0  0  0  0  0  0  0
  1 17  1  0  0  0  0
  1  4  1  0  0  0  0
  2  1  1  0  0  0  0
  3  2  2  0  0  0  0
  5  6  1  6  0  0  0
  5  2  1  0  0  0  0
  5  7  1  0  0  0  0
  7  8  1  0  0  0  0
  8  9  2  0  0  0  0
 10  9  1  0  0  0  0
 10 13  1  0  0  0  0
 11 10  2  0  0  0  0
 12  7  2  0  0  0  0
 12 11  1  0  0  0  0
 14 13  1  0  0  0  0
 14 15  1  0  0  0  0
 16 14  1  0  0  0  0
 17 21  1  0  0  0  0
 18 25  1  0  0  0  0
 19 18  2  0  0  0  0
 20 19  1  0  0  0  0
 21 20  2  0  0  0  0
 21 22  1  0  0  0  0
 22 23  2  0  0  0  0
 23 18  1  0  0  0  0
 23 26  1  0  0  0  0
 25 24  1  0  0  0  0
 27 26  1  0  0  0  0
M  END
>  <MODEL>
4

>  <REMARK>
 VINA RESULT:    -7.371      4.444      6.874
 INTER + INTRA:         -11.718
 INTER:                 -10.932
 INTRA:                  -0.786
 UNBOUND:                -1.115
  Name = CHEMBL4797414
  12 active torsions:
  status: ('A' for Active; 'I' for Inactive)
    1  A    between atoms: C_1  and  O_2
    2  A    between atoms: O_2  and  C_3
    3  A    between atoms: C_6  and  C_7
    4  A    between atoms: C_7  and  N_8
    5  A    between atoms: C_9  and  C_11
    6  A    between atoms: C_11  and  C_12
    7  A    between atoms: C_11  and  C_13
    8  A    between atoms: C_16  and  C_17
    9  A    between atoms: C_17  and  C_18
   10  A    between atoms: C_18  and  C_19
   11  A    between atoms: C_18  and  C_20
   12  A    between atoms: C_24  and  O_25
                            x       y       z     vdW  Elec       q    Type
                         _______ _______ _______ _____ _____    ______ ____

>  <TORSDO>
F 8

>  <SCORE>
-7.371

>  <RMSD_LB>
4.444

>  <RMSD_UB>
6.874

$$$$
CHEMBL4797414
 OpenBabel10172500193D

 27 28  0  0  1  0  0  0  0  0999 V2000
  140.5670  137.7500  152.2570 N   0  0  0  0  0  0  0  0  0  0  0  0
  139.9670  138.4250  151.2110 C   0  0  0  0  0  0  0  0  0  0  0  0
  139.7420  139.6350  151.2580 O   0  0  0  0  0  0  0  0  0  0  0  0
  140.7110  136.7770  152.2040 H   0  0  0  0  0  0  0  0  0  0  0  0
  139.6250  137.5560  149.9980 C   0  0  1  0  0  3  0  0  0  0  0  0
  140.7960  136.6360  149.6460 C   0  0  0  0  0  1  0  0  0  0  0  0
  138.3590  136.7310  150.1720 C   0  0  0  0  0  0  0  0  0  0  0  0
  138.1230  135.6490  149.3080 C   0  0  0  0  0  3  0  0  0  0  0  0
  137.0110  134.8200  149.4780 C   0  0  0  0  0  3  0  0  0  0  0  0
  136.1110  135.0470  150.5260 C   0  0  0  0  0  0  0  0  0  0  0  0
  136.3390  136.1310  151.3820 C   0  0  0  0  0  3  0  0  0  0  0  0
  137.4530  136.9570  151.2150 C   0  0  0  0  0  3  0  0  0  0  0  0
  134.9130  134.1560  150.7530 C   0  0  0  0  0  2  0  0  0  0  0  0
  133.8140  134.2420  149.6750 C   0  0  0  0  0  3  0  0  0  0  0  0
  132.5320  133.5070  150.0780 C   0  0  0  0  0  1  0  0  0  0  0  0
  133.4870  135.7140  149.4000 C   0  0  0  0  0  1  0  0  0  0  0  0
  140.9830  138.4860  153.4250 C   0  0  0  0  0  2  0  0  0  0  0  0
  138.4230  137.7220  156.8320 C   0  0  0  0  0  0  0  0  0  0  0  0
  139.7920  137.4470  156.8980 C   0  0  0  0  0  3  0  0  0  0  0  0
  140.6260  137.7060  155.8030 C   0  0  0  0  0  3  0  0  0  0  0  0
  140.1010  138.2330  154.6160 C   0  0  0  0  0  0  0  0  0  0  0  0
  138.7310  138.5150  154.5490 C   0  0  0  0  0  3  0  0  0  0  0  0
  137.9040  138.2570  155.6440 C   0  0  0  0  0  0  0  0  0  0  0  0
  136.9880  136.1970  157.9620 C   0  0  0  0  0  1  0  0  0  0  0  0
  137.5320  137.5050  157.8500 O   0  0  0  0  0  0  0  0  0  0  0  0
  136.5650  138.5240  155.5560 O   0  0  0  0  0  0  0  0  0  0  0  0
  136.0920  138.2960  154.7800 H   0  0  0  0  0  0  0  0  0  0  0  0
  1 17  1  0  0  0  0
  2  3  2  0  0  0  0
  2  1  1  0  0  0  0
  4  1  1  0  0  0  0
  5  6  1  1  0  0  0
  5  7  1  0  0  0  0
  5  2  1  0  0  0  0
  7 12  1  0  0  0  0
  8  9  1  0  0  0  0
  8  7  2  0  0  0  0
  9 10  2  0  0  0  0
 10 13  1  0  0  0  0
 10 11  1  0  0  0  0
 12 11  2  0  0  0  0
 14 15  1  0  0  0  0
 14 13  1  0  0  0  0
 16 14  1  0  0  0  0
 17 21  1  0  0  0  0
 18 19  1  0  0  0  0
 18 25  1  0  0  0  0
 20 19  2  0  0  0  0
 21 20  1  0  0  0  0
 22 21  2  0  0  0  0
 22 23  1  0  0  0  0
 23 18  2  0  0  0  0
 25 24  1  0  0  0  0
 26 23  1  0  0  0  0
 27 26  1  0  0  0  0
M  END
>  <MODEL>
5

>  <REMARK>
 VINA RESULT:    -7.235      2.759      6.413
 INTER + INTRA:         -11.522
 INTER:                 -10.456
 INTRA:                  -1.066
 UNBOUND:                -1.115
  Name = CHEMBL4797414
  12 active torsions:
  status: ('A' for Active; 'I' for Inactive)
    1  A    between atoms: C_1  and  O_2
    2  A    between atoms: O_2  and  C_3
    3  A    between atoms: C_6  and  C_7
    4  A    between atoms: C_7  and  N_8
    5  A    between atoms: C_9  and  C_11
    6  A    between atoms: C_11  and  C_12
    7  A    between atoms: C_11  and  C_13
    8  A    between atoms: C_16  and  C_17
    9  A    between atoms: C_17  and  C_18
   10  A    between atoms: C_18  and  C_19
   11  A    between atoms: C_18  and  C_20
   12  A    between atoms: C_24  and  O_25
                            x       y       z     vdW  Elec       q    Type
                         _______ _______ _______ _____ _____    ______ ____

>  <TORSDO>
F 8

>  <SCORE>
-7.235

>  <RMSD_LB>
2.759

>  <RMSD_UB>
6.413

$$$$
CHEMBL4797414
 OpenBabel10172500193D

 27 28  0  0  1  0  0  0  0  0999 V2000
  140.2140  138.6060  153.4260 N   0  0  0  0  0  0  0  0  0  0  0  0
  141.3700  138.1220  154.0080 C   0  0  0  0  0  0  0  0  0  0  0  0
  141.4710  137.9590  155.2240 O   0  0  0  0  0  0  0  0  0  0  0  0
  140.1700  138.7530  152.4540 H   0  0  0  0  0  0  0  0  0  0  0  0
  142.4960  137.7930  153.0220 C   0  0  1  0  0  3  0  0  0  0  0  0
  141.9210  137.4070  151.6570 C   0  0  0  0  0  1  0  0  0  0  0  0
  143.5090  138.9150  152.8520 C   0  0  0  0  0  0  0  0  0  0  0  0
  143.5080  139.6640  151.6650 C   0  0  0  0  0  3  0  0  0  0  0  0
  144.3720  140.7500  151.4960 C   0  0  0  0  0  3  0  0  0  0  0  0
  145.2530  141.1190  152.5200 C   0  0  0  0  0  0  0  0  0  0  0  0
  145.2640  140.3670  153.7000 C   0  0  0  0  0  3  0  0  0  0  0  0
  144.3970  139.2850  153.8710 C   0  0  0  0  0  3  0  0  0  0  0  0
  146.1830  142.3010  152.3800 C   0  0  0  0  0  2  0  0  0  0  0  0
  147.2890  142.1490  151.3160 C   0  0  0  0  0  3  0  0  0  0  0  0
  147.7520  140.6990  151.1490 C   0  0  0  0  0  1  0  0  0  0  0  0
  146.7740  142.6730  149.9720 C   0  0  0  0  0  1  0  0  0  0  0  0
  139.0730  138.8930  154.2590 C   0  0  0  0  0  2  0  0  0  0  0  0
  136.1070  135.7390  154.2450 C   0  0  0  0  0  0  0  0  0  0  0  0
  136.6070  136.2470  153.0430 C   0  0  0  0  0  3  0  0  0  0  0  0
  137.5760  137.2580  153.0440 C   0  0  0  0  0  3  0  0  0  0  0  0
  138.0540  137.7870  154.2490 C   0  0  0  0  0  0  0  0  0  0  0  0
  137.5590  137.2760  155.4560 C   0  0  0  0  0  3  0  0  0  0  0  0
  136.5940  136.2670  155.4500 C   0  0  0  0  0  0  0  0  0  0  0  0
  134.3650  134.5050  153.1930 C   0  0  0  0  0  1  0  0  0  0  0  0
  135.1620  134.7520  154.3440 O   0  0  0  0  0  0  0  0  0  0  0  0
  136.1100  135.7890  156.6370 O   0  0  0  0  0  0  0  0  0  0  0  0
  135.2480  136.0230  156.9200 H   0  0  0  0  0  0  0  0  0  0  0  0
  1  2  1  0  0  0  0
  1 17  1  0  0  0  0
  2  3  2  0  0  0  0
  4  1  1  0  0  0  0
  5  6  1  6  0  0  0
  5  2  1  0  0  0  0
  7  5  1  0  0  0  0
  7 12  1  0  0  0  0
  8  7  2  0  0  0  0
  9  8  1  0  0  0  0
  9 10  2  0  0  0  0
 10 11  1  0  0  0  0
 11 12  2  0  0  0  0
 13 10  1  0  0  0  0
 14 13  1  0  0  0  0
 15 14  1  0  0  0  0
 16 14  1  0  0  0  0
 18 25  1  0  0  0  0
 18 23  1  0  0  0  0
 19 20  1  0  0  0  0
 19 18  2  0  0  0  0
 20 21  2  0  0  0  0
 21 17  1  0  0  0  0
 21 22  1  0  0  0  0
 23 22  2  0  0  0  0
 23 26  1  0  0  0  0
 24 25  1  0  0  0  0
 26 27  1  0  0  0  0
M  END
>  <MODEL>
6

>  <REMARK>
 VINA RESULT:    -7.197      3.446      4.552
 INTER + INTRA:         -11.467
 INTER:                 -10.639
 INTRA:                  -0.829
 UNBOUND:                -1.115
  Name = CHEMBL4797414
  12 active torsions:
  status: ('A' for Active; 'I' for Inactive)
    1  A    between atoms: C_1  and  O_2
    2  A    between atoms: O_2  and  C_3
    3  A    between atoms: C_6  and  C_7
    4  A    between atoms: C_7  and  N_8
    5  A    between atoms: C_9  and  C_11
    6  A    between atoms: C_11  and  C_12
    7  A    between atoms: C_11  and  C_13
    8  A    between atoms: C_16  and  C_17
    9  A    between atoms: C_17  and  C_18
   10  A    between atoms: C_18  and  C_19
   11  A    between atoms: C_18  and  C_20
   12  A    between atoms: C_24  and  O_25
                            x       y       z     vdW  Elec       q    Type
                         _______ _______ _______ _____ _____    ______ ____

>  <TORSDO>
F 8

>  <SCORE>
-7.197

>  <RMSD_LB>
3.446

>  <RMSD_UB>
4.552

$$$$
CHEMBL4797414
 OpenBabel10172500193D

 27 28  0  0  1  0  0  0  0  0999 V2000
  140.1670  138.0490  151.5500 N   0  0  0  0  0  0  0  0  0  0  0  0
  141.0080  138.3310  152.6090 C   0  0  0  0  0  0  0  0  0  0  0  0
  140.6390  138.9940  153.5790 O   0  0  0  0  0  0  0  0  0  0  0  0
  140.4970  137.5400  150.7740 H   0  0  0  0  0  0  0  0  0  0  0  0
  142.4180  137.7440  152.4840 C   0  0  1  0  0  3  0  0  0  0  0  0
  142.5780  137.0050  151.1530 C   0  0  0  0  0  1  0  0  0  0  0  0
  143.5270  138.7740  152.6350 C   0  0  0  0  0  0  0  0  0  0  0  0
  143.7230  139.7220  151.6180 C   0  0  0  0  0  3  0  0  0  0  0  0
  144.6820  140.7310  151.7480 C   0  0  0  0  0  3  0  0  0  0  0  0
  145.4620  140.8220  152.9080 C   0  0  0  0  0  0  0  0  0  0  0  0
  145.2750  139.8720  153.9180 C   0  0  0  0  0  3  0  0  0  0  0  0
  144.3140  138.8660  153.7900 C   0  0  0  0  0  3  0  0  0  0  0  0
  146.4890  141.9130  153.0910 C   0  0  0  0  0  2  0  0  0  0  0  0
  147.9600  141.4620  152.9750 C   0  0  0  0  0  3  0  0  0  0  0  0
  148.6540  142.0260  151.7320 C   0  0  0  0  0  1  0  0  0  0  0  0
  148.7250  141.9040  154.2260 C   0  0  0  0  0  1  0  0  0  0  0  0
  138.8000  138.5050  151.5940 C   0  0  0  0  0  2  0  0  0  0  0  0
  136.0260  135.2820  152.4050 C   0  0  0  0  0  0  0  0  0  0  0  0
  136.5350  136.0600  153.4500 C   0  0  0  0  0  3  0  0  0  0  0  0
  137.4220  137.1120  153.1900 C   0  0  0  0  0  3  0  0  0  0  0  0
  137.8260  137.3970  151.8800 C   0  0  0  0  0  0  0  0  0  0  0  0
  137.3140  136.6230  150.8300 C   0  0  0  0  0  3  0  0  0  0  0  0
  136.4280  135.5760  151.0940 C   0  0  0  0  0  0  0  0  0  0  0  0
  134.3900  134.2090  153.7590 C   0  0  0  0  0  1  0  0  0  0  0  0
  135.1550  134.2360  152.5610 O   0  0  0  0  0  0  0  0  0  0  0  0
  135.9490  134.8200  150.0590 O   0  0  0  0  0  0  0  0  0  0  0  0
  136.2310  133.9320  149.9570 H   0  0  0  0  0  0  0  0  0  0  0  0
  1 17  1  0  0  0  0
  1  2  1  0  0  0  0
  2  3  2  0  0  0  0
  4  1  1  0  0  0  0
  5  6  1  6  0  0  0
  5  2  1  0  0  0  0
  5  7  1  0  0  0  0
  7 12  1  0  0  0  0
  8  9  1  0  0  0  0
  8  7  2  0  0  0  0
  9 10  2  0  0  0  0
 10 13  1  0  0  0  0
 10 11  1  0  0  0  0
 12 11  2  0  0  0  0
 14 13  1  0  0  0  0
 14 16  1  0  0  0  0
 15 14  1  0  0  0  0
 17 21  1  0  0  0  0
 18 25  1  0  0  0  0
 18 19  1  0  0  0  0
 20 19  2  0  0  0  0
 21 20  1  0  0  0  0
 22 23  1  0  0  0  0
 22 21  2  0  0  0  0
 23 18  2  0  0  0  0
 25 24  1  0  0  0  0
 26 23  1  0  0  0  0
 27 26  1  0  0  0  0
M  END
>  <MODEL>
7

>  <REMARK>
 VINA RESULT:    -6.991      3.759      5.037
 INTER + INTRA:         -11.171
 INTER:                 -10.214
 INTRA:                  -0.957
 UNBOUND:                -1.115
  Name = CHEMBL4797414
  12 active torsions:
  status: ('A' for Active; 'I' for Inactive)
    1  A    between atoms: C_1  and  O_2
    2  A    between atoms: O_2  and  C_3
    3  A    between atoms: C_6  and  C_7
    4  A    between atoms: C_7  and  N_8
    5  A    between atoms: C_9  and  C_11
    6  A    between atoms: C_11  and  C_12
    7  A    between atoms: C_11  and  C_13
    8  A    between atoms: C_16  and  C_17
    9  A    between atoms: C_17  and  C_18
   10  A    between atoms: C_18  and  C_19
   11  A    between atoms: C_18  and  C_20
   12  A    between atoms: C_24  and  O_25
                            x       y       z     vdW  Elec       q    Type
                         _______ _______ _______ _____ _____    ______ ____

>  <TORSDO>
F 8

>  <SCORE>
-6.991

>  <RMSD_LB>
3.759

>  <RMSD_UB>
5.037

$$$$
CHEMBL4797414
 OpenBabel10172500193D

 27 28  0  0  1  0  0  0  0  0999 V2000
  139.3850  138.1930  153.4780 N   0  0  0  0  0  0  0  0  0  0  0  0
  140.7610  138.3040  153.5280 C   0  0  0  0  0  0  0  0  0  0  0  0
  141.3390  138.8620  154.4620 O   0  0  0  0  0  0  0  0  0  0  0  0
  138.9480  137.7660  152.7070 H   0  0  0  0  0  0  0  0  0  0  0  0
  141.5000  137.6690  152.3460 C   0  0  1  0  0  3  0  0  0  0  0  0
  140.5520  137.4730  151.1610 C   0  0  0  0  0  1  0  0  0  0  0  0
  142.7260  138.4500  151.8990 C   0  0  0  0  0  0  0  0  0  0  0  0
  144.0020  137.9850  152.2580 C   0  0  0  0  0  3  0  0  0  0  0  0
  145.1570  138.6300  151.8070 C   0  0  0  0  0  3  0  0  0  0  0  0
  145.0640  139.7520  150.9730 C   0  0  0  0  0  0  0  0  0  0  0  0
  143.7930  140.2220  150.6230 C   0  0  0  0  0  3  0  0  0  0  0  0
  142.6380  139.5760  151.0700 C   0  0  0  0  0  3  0  0  0  0  0  0
  146.2910  140.4570  150.4490 C   0  0  0  0  0  2  0  0  0  0  0  0
  146.5930  141.8250  151.0940 C   0  0  0  0  0  3  0  0  0  0  0  0
  148.0270  141.9260  151.6210 C   0  0  0  0  0  1  0  0  0  0  0  0
  146.3530  142.9340  150.0640 C   0  0  0  0  0  1  0  0  0  0  0  0
  138.5960  138.7070  154.5710 C   0  0  0  0  0  2  0  0  0  0  0  0
  135.8510  135.7510  156.1430 C   0  0  0  0  0  0  0  0  0  0  0  0
  136.4310  136.7020  156.9890 C   0  0  0  0  0  3  0  0  0  0  0  0
  137.3080  137.6680  156.4810 C   0  0  0  0  0  3  0  0  0  0  0  0
  137.6320  137.6920  155.1190 C   0  0  0  0  0  0  0  0  0  0  0  0
  137.0490  136.7440  154.2680 C   0  0  0  0  0  3  0  0  0  0  0  0
  136.1730  135.7830  154.7790 C   0  0  0  0  0  0  0  0  0  0  0  0
  134.6380  134.7440  157.9250 C   0  0  0  0  0  1  0  0  0  0  0  0
  134.9830  134.7710  156.5470 O   0  0  0  0  0  0  0  0  0  0  0  0
  135.6250  134.8550  153.9360 O   0  0  0  0  0  0  0  0  0  0  0  0
  135.7930  133.9430  154.0700 H   0  0  0  0  0  0  0  0  0  0  0  0
  1  2  1  0  0  0  0
  1 17  1  0  0  0  0
  2  3  2  0  0  0  0
  4  1  1  0  0  0  0
  5  6  1  6  0  0  0
  5  2  1  0  0  0  0
  7  8  1  0  0  0  0
  7  5  1  0  0  0  0
  9  8  2  0  0  0  0
 10  9  1  0  0  0  0
 11 10  2  0  0  0  0
 11 12  1  0  0  0  0
 12  7  2  0  0  0  0
 13 10  1  0  0  0  0
 13 14  1  0  0  0  0
 14 15  1  0  0  0  0
 16 14  1  0  0  0  0
 17 21  1  0  0  0  0
 18 25  1  0  0  0  0
 18 19  1  0  0  0  0
 20 19  2  0  0  0  0
 21 20  1  0  0  0  0
 22 23  1  0  0  0  0
 22 21  2  0  0  0  0
 23 18  2  0  0  0  0
 25 24  1  0  0  0  0
 26 27  1  0  0  0  0
 26 23  1  0  0  0  0
M  END
>  <MODEL>
8

>  <REMARK>
 VINA RESULT:    -6.928      3.160      4.547
 INTER + INTRA:         -11.081
 INTER:                 -10.188
 INTRA:                  -0.892
 UNBOUND:                -1.115
  Name = CHEMBL4797414
  12 active torsions:
  status: ('A' for Active; 'I' for Inactive)
    1  A    between atoms: C_1  and  O_2
    2  A    between atoms: O_2  and  C_3
    3  A    between atoms: C_6  and  C_7
    4  A    between atoms: C_7  and  N_8
    5  A    between atoms: C_9  and  C_11
    6  A    between atoms: C_11  and  C_12
    7  A    between atoms: C_11  and  C_13
    8  A    between atoms: C_16  and  C_17
    9  A    between atoms: C_17  and  C_18
   10  A    between atoms: C_18  and  C_19
   11  A    between atoms: C_18  and  C_20
   12  A    between atoms: C_24  and  O_25
                            x       y       z     vdW  Elec       q    Type
                         _______ _______ _______ _____ _____    ______ ____

>  <TORSDO>
F 8

>  <SCORE>
-6.928

>  <RMSD_LB>
3.160

>  <RMSD_UB>
4.547

$$$$
CHEMBL4797414
 OpenBabel10172500193D

 27 28  0  0  1  0  0  0  0  0999 V2000
  143.3510  136.8690  149.7710 N   0  0  0  0  0  0  0  0  0  0  0  0
  143.7960  137.5180  148.6360 C   0  0  0  0  0  0  0  0  0  0  0  0
  143.0250  138.0870  147.8630 O   0  0  0  0  0  0  0  0  0  0  0  0
  143.9870  136.3980  150.3570 H   0  0  0  0  0  0  0  0  0  0  0  0
  145.3140  137.4860  148.4310 C   0  0  1  0  0  3  0  0  0  0  0  0
  145.6620  137.6810  146.9530 C   0  0  0  0  0  1  0  0  0  0  0  0
  146.0690  138.5020  149.2730 C   0  0  0  0  0  0  0  0  0  0  0  0
  146.3140  139.7810  148.7470 C   0  0  0  0  0  3  0  0  0  0  0  0
  146.9390  140.7680  149.5140 C   0  0  0  0  0  3  0  0  0  0  0  0
  147.3250  140.5020  150.8340 C   0  0  0  0  0  0  0  0  0  0  0  0
  147.0910  139.2250  151.3560 C   0  0  0  0  0  3  0  0  0  0  0  0
  146.4620  138.2390  150.5920 C   0  0  0  0  0  3  0  0  0  0  0  0
  147.9810  141.5530  151.6970 C   0  0  0  0  0  2  0  0  0  0  0  0
  147.0270  142.3410  152.6180 C   0  0  0  0  0  3  0  0  0  0  0  0
  145.5790  142.3250  152.1200 C   0  0  0  0  0  1  0  0  0  0  0  0
  147.0830  141.7490  154.0300 C   0  0  0  0  0  1  0  0  0  0  0  0
  141.9440  136.8890  150.0890 C   0  0  0  0  0  2  0  0  0  0  0  0
  141.1860  138.1980  154.1450 C   0  0  0  0  0  0  0  0  0  0  0  0
  140.1310  138.0480  153.2390 C   0  0  0  0  0  3  0  0  0  0  0  0
  140.3710  137.6120  151.9300 C   0  0  0  0  0  3  0  0  0  0  0  0
  141.6740  137.3290  151.5000 C   0  0  0  0  0  0  0  0  0  0  0  0
  142.7320  137.4730  152.4070 C   0  0  0  0  0  3  0  0  0  0  0  0
  142.4870  137.9070  153.7120 C   0  0  0  0  0  0  0  0  0  0  0  0
  140.5040  137.6830  156.3660 C   0  0  0  0  0  1  0  0  0  0  0  0
  141.0480  138.6170  155.4420 O   0  0  0  0  0  0  0  0  0  0  0  0
  143.5340  138.0570  154.5800 O   0  0  0  0  0  0  0  0  0  0  0  0
  144.3180  138.4860  154.2990 H   0  0  0  0  0  0  0  0  0  0  0  0
  1 17  1  0  0  0  0
  1  4  1  0  0  0  0
  2  1  1  0  0  0  0
  3  2  2  0  0  0  0
  5  6  1  6  0  0  0
  5  2  1  0  0  0  0
  5  7  1  0  0  0  0
  7 12  1  0  0  0  0
  8  7  2  0  0  0  0
  8  9  1  0  0  0  0
  9 10  2  0  0  0  0
 10 11  1  0  0  0  0
 10 13  1  0  0  0  0
 12 11  2  0  0  0  0
 13 14  1  0  0  0  0
 14 16  1  0  0  0  0
 15 14  1  0  0  0  0
 17 21  1  0  0  0  0
 18 25  1  0  0  0  0
 19 18  2  0  0  0  0
 20 19  1  0  0  0  0
 21 20  2  0  0  0  0
 21 22  1  0  0  0  0
 22 23  2  0  0  0  0
 23 18  1  0  0  0  0
 23 26  1  0  0  0  0
 25 24  1  0  0  0  0
 27 26  1  0  0  0  0
M  END
>  <MODEL>
9

>  <REMARK>
 VINA RESULT:    -6.908      4.670      7.985
 INTER + INTRA:         -11.052
 INTER:                  -9.936
 INTRA:                  -1.115
 UNBOUND:                -1.115
  Name = CHEMBL4797414
  12 active torsions:
  status: ('A' for Active; 'I' for Inactive)
    1  A    between atoms: C_1  and  O_2
    2  A    between atoms: O_2  and  C_3
    3  A    between atoms: C_6  and  C_7
    4  A    between atoms: C_7  and  N_8
    5  A    between atoms: C_9  and  C_11
    6  A    between atoms: C_11  and  C_12
    7  A    between atoms: C_11  and  C_13
    8  A    between atoms: C_16  and  C_17
    9  A    between atoms: C_17  and  C_18
   10  A    between atoms: C_18  and  C_19
   11  A    between atoms: C_18  and  C_20
   12  A    between atoms: C_24  and  O_25
                            x       y       z     vdW  Elec       q    Type
                         _______ _______ _______ _____ _____    ______ ____

>  <TORSDO>
F 8

>  <SCORE>
-6.908

>  <RMSD_LB>
4.670

>  <RMSD_UB>
7.985

$$$$
