CHEMBL204374
 OpenBabel10172500223D

 27 28  0  0  0  0  0  0  0  0999 V2000
  134.6220  134.0110  154.1530 C   0  0  0  0  0  0  0  0  0  0  0  0
  134.3140  133.3180  155.1100 O   0  0  0  0  0  0  0  0  0  0  0  0
  135.3090  135.1970  154.2350 N   0  0  0  0  0  0  0  0  0  0  0  0
  135.5330  135.6740  153.4040 H   0  0  0  0  0  0  0  0  0  0  0  0
  134.5690  134.4700  151.7320 C   0  0  0  0  0  3  0  0  0  0  0  0
  134.2670  133.6490  152.7530 C   0  0  0  0  0  3  0  0  0  0  0  0
  133.6730  134.9010  148.0570 C   0  0  0  0  0  0  0  0  0  0  0  0
  133.9660  135.2000  149.3930 C   0  0  0  0  0  3  0  0  0  0  0  0
  134.2690  134.1850  150.3140 C   0  0  0  0  0  0  0  0  0  0  0  0
  134.2380  132.8520  149.8850 C   0  0  0  0  0  3  0  0  0  0  0  0
  133.9400  132.5370  148.5570 C   0  0  0  0  0  3  0  0  0  0  0  0
  133.6660  133.5600  147.6500 C   0  0  0  0  0  0  0  0  0  0  0  0
  132.4470  136.8470  147.4180 C   0  0  0  0  0  1  0  0  0  0  0  0
  133.3810  135.8290  147.0890 O   0  0  0  0  0  0  0  0  0  0  0  0
  133.3790  133.2580  146.3450 O   0  0  0  0  0  0  0  0  0  0  0  0
  132.9120  133.8720  145.8140 H   0  0  0  0  0  0  0  0  0  0  0  0
  135.7130  135.7710  155.5000 C   0  0  0  0  0  2  0  0  0  0  0  0
  136.9700  136.5950  155.3870 C   0  0  0  0  0  0  0  0  0  0  0  0
  137.7860  136.7830  156.5060 C   0  0  0  0  0  3  0  0  0  0  0  0
  138.9390  137.5640  156.4200 C   0  0  0  0  0  3  0  0  0  0  0  0
  139.3010  138.1610  155.2090 C   0  0  0  0  0  0  0  0  0  0  0  0
  138.5100  137.9800  154.0690 C   0  0  0  0  0  0  0  0  0  0  0  0
  137.3490  137.1900  154.1720 C   0  0  0  0  0  3  0  0  0  0  0  0
  140.4400  138.9150  155.1800 O   0  0  0  0  0  0  0  0  0  0  0  0
  140.9710  138.9910  155.9480 H   0  0  0  0  0  0  0  0  0  0  0  0
  138.7040  138.4850  152.8100 O   0  0  0  0  0  0  0  0  0  0  0  0
  138.4930  137.6230  151.7010 C   0  0  0  0  0  1  0  0  0  0  0  0
  1  3  1  0  0  0  0
  1  2  2  0  0  0  0
  3 17  1  0  0  0  0
  4  3  1  0  0  0  0
  5  6  2  0  0  0  0
  6  1  1  0  0  0  0
  7  8  1  0  0  0  0
  8  9  2  0  0  0  0
  9  5  1  0  0  0  0
 10  9  1  0  0  0  0
 11 10  2  0  0  0  0
 12  7  2  0  0  0  0
 12 11  1  0  0  0  0
 14 13  1  0  0  0  0
 14  7  1  0  0  0  0
 15 12  1  0  0  0  0
 16 15  1  0  0  0  0
 18 17  1  0  0  0  0
 18 19  1  0  0  0  0
 20 19  2  0  0  0  0
 21 20  1  0  0  0  0
 22 23  1  0  0  0  0
 22 21  2  0  0  0  0
 23 18  2  0  0  0  0
 24 21  1  0  0  0  0
 24 25  1  0  0  0  0
 26 22  1  0  0  0  0
 27 26  1  0  0  0  0
M  END
>  <MODEL>
1

>  <REMARK>
 VINA RESULT:    -7.726      0.000      0.000
 INTER + INTRA:         -11.378
 INTER:                 -10.714
 INTRA:                  -0.664
 UNBOUND:                -0.490
  Name = CHEMBL204374
  10 active torsions:
  status: ('A' for Active; 'I' for Inactive)
    1  A    between atoms: C_1  and  O_2
    2  A    between atoms: O_2  and  C_3
    3  A    between atoms: C_5  and  C_6
    4  A    between atoms: C_7  and  C_8
    5  A    between atoms: N_10  and  C_11
    6  A    between atoms: C_11  and  C_12
    7  A    between atoms: C_15  and  O_16
    8  A    between atoms: C_17  and  O_18
    9  A    between atoms: O_18  and  C_19
   10  A    between atoms: C_23  and  O_24
                            x       y       z     vdW  Elec       q    Type
                         _______ _______ _______ _____ _____    ______ ____

>  <TORSDO>
F 8

>  <SCORE>
-7.726

>  <RMSD_LB>
0.000

>  <RMSD_UB>
0.000

$$$$
CHEMBL204374
 OpenBabel10172500223D

 27 28  0  0  0  0  0  0  0  0999 V2000
  134.3090  134.0150  153.7040 C   0  0  0  0  0  0  0  0  0  0  0  0
  134.2140  133.1120  154.5200 O   0  0  0  0  0  0  0  0  0  0  0  0
  134.7610  135.2800  153.9870 N   0  0  0  0  0  0  0  0  0  0  0  0
  134.8260  135.9350  153.2550 H   0  0  0  0  0  0  0  0  0  0  0  0
  134.8430  133.9250  151.3000 C   0  0  0  0  0  3  0  0  0  0  0  0
  133.9210  133.8500  152.2760 C   0  0  0  0  0  3  0  0  0  0  0  0
  135.2160  133.8150  147.5120 C   0  0  0  0  0  0  0  0  0  0  0  0
  135.5230  133.9680  148.8700 C   0  0  0  0  0  3  0  0  0  0  0  0
  134.5500  133.7580  149.8620 C   0  0  0  0  0  0  0  0  0  0  0  0
  133.2470  133.4280  149.4700 C   0  0  0  0  0  3  0  0  0  0  0  0
  132.9240  133.2790  148.1200 C   0  0  0  0  0  3  0  0  0  0  0  0
  133.9080  133.4670  147.1490 C   0  0  0  0  0  0  0  0  0  0  0  0
  137.0830  132.9740  146.2870 C   0  0  0  0  0  1  0  0  0  0  0  0
  136.1060  133.9850  146.4810 O   0  0  0  0  0  0  0  0  0  0  0  0
  133.5980  133.3170  145.8240 O   0  0  0  0  0  0  0  0  0  0  0  0
  133.1430  133.9980  145.3690 H   0  0  0  0  0  0  0  0  0  0  0  0
  135.1450  135.6840  155.3220 C   0  0  0  0  0  2  0  0  0  0  0  0
  136.3800  136.5500  155.3320 C   0  0  0  0  0  0  0  0  0  0  0  0
  137.0060  136.8890  154.1290 C   0  0  0  0  0  3  0  0  0  0  0  0
  138.1630  137.6680  154.1270 C   0  0  0  0  0  3  0  0  0  0  0  0
  138.7060  138.1310  155.3290 C   0  0  0  0  0  0  0  0  0  0  0  0
  138.0940  137.8180  156.5480 C   0  0  0  0  0  0  0  0  0  0  0  0
  136.9280  137.0290  156.5330 C   0  0  0  0  0  3  0  0  0  0  0  0
  139.8410  138.8920  155.2700 O   0  0  0  0  0  0  0  0  0  0  0  0
  139.9410  139.6290  155.8390 H   0  0  0  0  0  0  0  0  0  0  0  0
  138.4830  138.1760  157.8120 O   0  0  0  0  0  0  0  0  0  0  0  0
  137.5720  137.9580  158.8800 C   0  0  0  0  0  1  0  0  0  0  0  0
  1  3  1  0  0  0  0
  1  2  2  0  0  0  0
  3 17  1  0  0  0  0
  4  3  1  0  0  0  0
  5  6  2  0  0  0  0
  6  1  1  0  0  0  0
  7  8  1  0  0  0  0
  8  9  2  0  0  0  0
  9  5  1  0  0  0  0
 10  9  1  0  0  0  0
 11 10  2  0  0  0  0
 12  7  2  0  0  0  0
 12 11  1  0  0  0  0
 13 14  1  0  0  0  0
 14  7  1  0  0  0  0
 15 12  1  0  0  0  0
 16 15  1  0  0  0  0
 17 18  1  0  0  0  0
 18 23  1  0  0  0  0
 19 18  2  0  0  0  0
 20 19  1  0  0  0  0
 20 21  2  0  0  0  0
 21 22  1  0  0  0  0
 22 26  1  0  0  0  0
 23 22  2  0  0  0  0
 24 21  1  0  0  0  0
 24 25  1  0  0  0  0
 26 27  1  0  0  0  0
M  END
>  <MODEL>
2

>  <REMARK>
 VINA RESULT:    -7.700      1.519      2.636
 INTER + INTRA:         -11.342
 INTER:                 -10.748
 INTRA:                  -0.594
 UNBOUND:                -0.490
  Name = CHEMBL204374
  10 active torsions:
  status: ('A' for Active; 'I' for Inactive)
    1  A    between atoms: C_1  and  O_2
    2  A    between atoms: O_2  and  C_3
    3  A    between atoms: C_5  and  C_6
    4  A    between atoms: C_7  and  C_8
    5  A    between atoms: N_10  and  C_11
    6  A    between atoms: C_11  and  C_12
    7  A    between atoms: C_15  and  O_16
    8  A    between atoms: C_17  and  O_18
    9  A    between atoms: O_18  and  C_19
   10  A    between atoms: C_23  and  O_24
                            x       y       z     vdW  Elec       q    Type
                         _______ _______ _______ _____ _____    ______ ____

>  <TORSDO>
F 8

>  <SCORE>
-7.700

>  <RMSD_LB>
1.519

>  <RMSD_UB>
2.636

$$$$
CHEMBL204374
 OpenBabel10172500223D

 27 28  0  0  0  0  0  0  0  0999 V2000
  134.3640  134.7750  153.0370 C   0  0  0  0  0  0  0  0  0  0  0  0
  134.0810  133.6540  153.4280 O   0  0  0  0  0  0  0  0  0  0  0  0
  133.7510  135.4140  151.9870 N   0  0  0  0  0  0  0  0  0  0  0  0
  134.0320  136.3300  151.7610 H   0  0  0  0  0  0  0  0  0  0  0  0
  136.3680  136.2030  152.8960 C   0  0  0  0  0  3  0  0  0  0  0  0
  135.4420  135.5940  153.6570 C   0  0  0  0  0  3  0  0  0  0  0  0
  138.7070  138.0350  155.2770 C   0  0  0  0  0  0  0  0  0  0  0  0
  137.6710  137.2210  154.8020 C   0  0  0  0  0  3  0  0  0  0  0  0
  137.4600  137.0450  153.4240 C   0  0  0  0  0  0  0  0  0  0  0  0
  138.2820  137.7320  152.5220 C   0  0  0  0  0  3  0  0  0  0  0  0
  139.3140  138.5530  152.9800 C   0  0  0  0  0  3  0  0  0  0  0  0
  139.5250  138.6970  154.3510 C   0  0  0  0  0  0  0  0  0  0  0  0
  138.0920  137.7190  157.5610 C   0  0  0  0  0  1  0  0  0  0  0  0
  138.9930  138.2510  156.6010 O   0  0  0  0  0  0  0  0  0  0  0  0
  140.5390  139.4970  154.8060 O   0  0  0  0  0  0  0  0  0  0  0  0
  140.3470  140.2220  155.3680 H   0  0  0  0  0  0  0  0  0  0  0  0
  132.7090  134.7890  151.2030 C   0  0  0  0  0  2  0  0  0  0  0  0
  133.2290  134.1940  149.9190 C   0  0  0  0  0  0  0  0  0  0  0  0
  133.7220  132.8860  149.9030 C   0  0  0  0  0  3  0  0  0  0  0  0
  134.2300  132.3330  148.7270 C   0  0  0  0  0  3  0  0  0  0  0  0
  134.2420  133.0770  147.5430 C   0  0  0  0  0  0  0  0  0  0  0  0
  133.7440  134.3840  147.5260 C   0  0  0  0  0  0  0  0  0  0  0  0
  133.2360  134.9280  148.7210 C   0  0  0  0  0  3  0  0  0  0  0  0
  134.7500  132.4870  146.4200 O   0  0  0  0  0  0  0  0  0  0  0  0
  135.0620  131.6040  146.4550 H   0  0  0  0  0  0  0  0  0  0  0  0
  133.6790  135.2560  146.4710 O   0  0  0  0  0  0  0  0  0  0  0  0
  134.8790  135.8920  146.0520 C   0  0  0  0  0  1  0  0  0  0  0  0
  1  2  2  0  0  0  0
  1  6  1  0  0  0  0
  3  1  1  0  0  0  0
  4  3  1  0  0  0  0
  5  9  1  0  0  0  0
  5  6  2  0  0  0  0
  7 14  1  0  0  0  0
  8  7  1  0  0  0  0
  9  8  2  0  0  0  0
 10 11  2  0  0  0  0
 10  9  1  0  0  0  0
 11 12  1  0  0  0  0
 12 15  1  0  0  0  0
 12  7  2  0  0  0  0
 14 13  1  0  0  0  0
 15 16  1  0  0  0  0
 17  3  1  0  0  0  0
 18 17  1  0  0  0  0
 19 18  1  0  0  0  0
 20 19  2  0  0  0  0
 21 20  1  0  0  0  0
 22 21  2  0  0  0  0
 22 23  1  0  0  0  0
 23 18  2  0  0  0  0
 24 25  1  0  0  0  0
 24 21  1  0  0  0  0
 26 22  1  0  0  0  0
 27 26  1  0  0  0  0
M  END
>  <MODEL>
3

>  <REMARK>
 VINA RESULT:    -7.559      1.430      8.235
 INTER + INTRA:         -11.143
 INTER:                 -10.493
 INTRA:                  -0.650
 UNBOUND:                -0.490
  Name = CHEMBL204374
  10 active torsions:
  status: ('A' for Active; 'I' for Inactive)
    1  A    between atoms: C_1  and  O_2
    2  A    between atoms: O_2  and  C_3
    3  A    between atoms: C_5  and  C_6
    4  A    between atoms: C_7  and  C_8
    5  A    between atoms: N_10  and  C_11
    6  A    between atoms: C_11  and  C_12
    7  A    between atoms: C_15  and  O_16
    8  A    between atoms: C_17  and  O_18
    9  A    between atoms: O_18  and  C_19
   10  A    between atoms: C_23  and  O_24
                            x       y       z     vdW  Elec       q    Type
                         _______ _______ _______ _____ _____    ______ ____

>  <TORSDO>
F 8

>  <SCORE>
-7.559

>  <RMSD_LB>
1.430

>  <RMSD_UB>
8.235

$$$$
CHEMBL204374
 OpenBabel10172500223D

 27 28  0  0  0  0  0  0  0  0999 V2000
  134.4160  133.9020  154.2950 C   0  0  0  0  0  0  0  0  0  0  0  0
  134.1700  132.7500  154.6130 O   0  0  0  0  0  0  0  0  0  0  0  0
  134.7760  134.8960  155.1710 N   0  0  0  0  0  0  0  0  0  0  0  0
  134.9790  135.7910  154.8160 H   0  0  0  0  0  0  0  0  0  0  0  0
  133.8970  133.5690  151.9080 C   0  0  0  0  0  3  0  0  0  0  0  0
  134.3360  134.3810  152.8860 C   0  0  0  0  0  3  0  0  0  0  0  0
  134.0240  133.5160  148.1030 C   0  0  0  0  0  0  0  0  0  0  0  0
  134.1430  133.1120  149.4390 C   0  0  0  0  0  3  0  0  0  0  0  0
  133.7700  133.9650  150.4910 C   0  0  0  0  0  0  0  0  0  0  0  0
  133.3100  135.2510  150.1850 C   0  0  0  0  0  3  0  0  0  0  0  0
  133.1930  135.6710  148.8590 C   0  0  0  0  0  3  0  0  0  0  0  0
  133.5440  134.8030  147.8260 C   0  0  0  0  0  0  0  0  0  0  0  0
  135.7280  132.5000  146.7760 C   0  0  0  0  0  1  0  0  0  0  0  0
  134.3500  132.7440  147.0160 O   0  0  0  0  0  0  0  0  0  0  0  0
  133.4260  135.2070  146.5230 O   0  0  0  0  0  0  0  0  0  0  0  0
  133.1020  136.0640  146.3260 H   0  0  0  0  0  0  0  0  0  0  0  0
  134.8680  134.6730  156.5970 C   0  0  0  0  0  2  0  0  0  0  0  0
  135.7340  135.6960  157.2880 C   0  0  0  0  0  0  0  0  0  0  0  0
  135.9230  135.6320  158.6720 C   0  0  0  0  0  3  0  0  0  0  0  0
  136.7010  136.5870  159.3260 C   0  0  0  0  0  3  0  0  0  0  0  0
  137.3130  137.6160  158.6050 C   0  0  0  0  0  0  0  0  0  0  0  0
  137.1520  137.6980  157.2180 C   0  0  0  0  0  0  0  0  0  0  0  0
  136.3620  136.7280  156.5720 C   0  0  0  0  0  3  0  0  0  0  0  0
  138.0650  138.5250  159.2960 O   0  0  0  0  0  0  0  0  0  0  0  0
  138.8890  138.2700  159.6610 H   0  0  0  0  0  0  0  0  0  0  0  0
  137.6670  138.6300  156.3550 O   0  0  0  0  0  0  0  0  0  0  0  0
  137.7290  138.3030  154.9740 C   0  0  0  0  0  1  0  0  0  0  0  0
  1  2  2  0  0  0  0
  1  3  1  0  0  0  0
  3 17  1  0  0  0  0
  4  3  1  0  0  0  0
  5  6  2  0  0  0  0
  6  1  1  0  0  0  0
  7  8  1  0  0  0  0
  8  9  2  0  0  0  0
  9  5  1  0  0  0  0
 10  9  1  0  0  0  0
 11 10  2  0  0  0  0
 12  7  2  0  0  0  0
 12 11  1  0  0  0  0
 13 14  1  0  0  0  0
 14  7  1  0  0  0  0
 15 12  1  0  0  0  0
 16 15  1  0  0  0  0
 17 18  1  0  0  0  0
 18 19  1  0  0  0  0
 19 20  2  0  0  0  0
 21 24  1  0  0  0  0
 21 20  1  0  0  0  0
 22 21  2  0  0  0  0
 23 22  1  0  0  0  0
 23 18  2  0  0  0  0
 24 25  1  0  0  0  0
 26 22  1  0  0  0  0
 27 26  1  0  0  0  0
M  END
>  <MODEL>
4

>  <REMARK>
 VINA RESULT:    -7.474      1.852      2.809
 INTER + INTRA:         -11.023
 INTER:                 -10.505
 INTRA:                  -0.518
 UNBOUND:                -0.490
  Name = CHEMBL204374
  10 active torsions:
  status: ('A' for Active; 'I' for Inactive)
    1  A    between atoms: C_1  and  O_2
    2  A    between atoms: O_2  and  C_3
    3  A    between atoms: C_5  and  C_6
    4  A    between atoms: C_7  and  C_8
    5  A    between atoms: N_10  and  C_11
    6  A    between atoms: C_11  and  C_12
    7  A    between atoms: C_15  and  O_16
    8  A    between atoms: C_17  and  O_18
    9  A    between atoms: O_18  and  C_19
   10  A    between atoms: C_23  and  O_24
                            x       y       z     vdW  Elec       q    Type
                         _______ _______ _______ _____ _____    ______ ____

>  <TORSDO>
F 8

>  <SCORE>
-7.474

>  <RMSD_LB>
1.852

>  <RMSD_UB>
2.809

$$$$
CHEMBL204374
 OpenBabel10172500223D

 27 28  0  0  0  0  0  0  0  0999 V2000
  134.3920  134.9730  153.5580 C   0  0  0  0  0  0  0  0  0  0  0  0
  133.4720  134.6600  154.2970 O   0  0  0  0  0  0  0  0  0  0  0  0
  134.5360  134.5410  152.2630 N   0  0  0  0  0  0  0  0  0  0  0  0
  135.3010  134.8680  151.7360 H   0  0  0  0  0  0  0  0  0  0  0  0
  136.3970  136.3330  153.1030 C   0  0  0  0  0  3  0  0  0  0  0  0
  135.4990  135.8700  153.9900 C   0  0  0  0  0  3  0  0  0  0  0  0
  139.4690  138.5630  152.8180 C   0  0  0  0  0  0  0  0  0  0  0  0
  138.4100  137.7150  152.4700 C   0  0  0  0  0  3  0  0  0  0  0  0
  137.5140  137.2370  153.4400 C   0  0  0  0  0  0  0  0  0  0  0  0
  137.7180  137.5910  154.7800 C   0  0  0  0  0  3  0  0  0  0  0  0
  138.7740  138.4290  155.1440 C   0  0  0  0  0  3  0  0  0  0  0  0
  139.6400  138.9140  154.1640 C   0  0  0  0  0  0  0  0  0  0  0  0
  141.0930  138.1760  151.1130 C   0  0  0  0  0  1  0  0  0  0  0  0
  140.3800  139.0870  151.9350 O   0  0  0  0  0  0  0  0  0  0  0  0
  140.6740  139.7410  154.5140 O   0  0  0  0  0  0  0  0  0  0  0  0
  140.7990  140.5520  154.0620 H   0  0  0  0  0  0  0  0  0  0  0  0
  133.6060  133.6200  151.6460 C   0  0  0  0  0  2  0  0  0  0  0  0
  133.6210  133.7040  150.1410 C   0  0  0  0  0  0  0  0  0  0  0  0
  134.2080  132.6810  149.3900 C   0  0  0  0  0  3  0  0  0  0  0  0
  134.2510  132.7590  147.9980 C   0  0  0  0  0  3  0  0  0  0  0  0
  133.6960  133.8560  147.3330 C   0  0  0  0  0  0  0  0  0  0  0  0
  133.0910  134.8880  148.0580 C   0  0  0  0  0  0  0  0  0  0  0  0
  133.0570  134.7960  149.4620 C   0  0  0  0  0  3  0  0  0  0  0  0
  133.7650  133.8820  145.9680 O   0  0  0  0  0  0  0  0  0  0  0  0
  133.5320  133.1210  145.4730 H   0  0  0  0  0  0  0  0  0  0  0  0
  132.5040  136.0320  147.5820 O   0  0  0  0  0  0  0  0  0  0  0  0
  133.3380  137.1500  147.3120 C   0  0  0  0  0  1  0  0  0  0  0  0
  1  6  1  0  0  0  0
  1  2  2  0  0  0  0
  3  1  1  0  0  0  0
  4  3  1  0  0  0  0
  5  9  1  0  0  0  0
  5  6  2  0  0  0  0
  7 12  1  0  0  0  0
  8  7  2  0  0  0  0
  8  9  1  0  0  0  0
  9 10  2  0  0  0  0
 10 11  1  0  0  0  0
 12 15  1  0  0  0  0
 12 11  2  0  0  0  0
 13 14  1  0  0  0  0
 14  7  1  0  0  0  0
 16 15  1  0  0  0  0
 17  3  1  0  0  0  0
 18 17  1  0  0  0  0
 19 18  2  0  0  0  0
 20 19  1  0  0  0  0
 21 20  2  0  0  0  0
 21 22  1  0  0  0  0
 22 23  2  0  0  0  0
 23 18  1  0  0  0  0
 24 21  1  0  0  0  0
 25 24  1  0  0  0  0
 26 22  1  0  0  0  0
 27 26  1  0  0  0  0
M  END
>  <MODEL>
5

>  <REMARK>
 VINA RESULT:    -7.438      1.308      8.000
 INTER + INTRA:         -10.972
 INTER:                 -10.352
 INTRA:                  -0.620
 UNBOUND:                -0.490
  Name = CHEMBL204374
  10 active torsions:
  status: ('A' for Active; 'I' for Inactive)
    1  A    between atoms: C_1  and  O_2
    2  A    between atoms: O_2  and  C_3
    3  A    between atoms: C_5  and  C_6
    4  A    between atoms: C_7  and  C_8
    5  A    between atoms: N_10  and  C_11
    6  A    between atoms: C_11  and  C_12
    7  A    between atoms: C_15  and  O_16
    8  A    between atoms: C_17  and  O_18
    9  A    between atoms: O_18  and  C_19
   10  A    between atoms: C_23  and  O_24
                            x       y       z     vdW  Elec       q    Type
                         _______ _______ _______ _____ _____    ______ ____

>  <TORSDO>
F 8

>  <SCORE>
-7.438

>  <RMSD_LB>
1.308

>  <RMSD_UB>
8.000

$$$$
CHEMBL204374
 OpenBabel10172500223D

 27 28  0  0  0  0  0  0  0  0999 V2000
  134.7040  134.9720  153.7660 C   0  0  0  0  0  0  0  0  0  0  0  0
  133.9900  134.3510  154.5380 O   0  0  0  0  0  0  0  0  0  0  0  0
  134.3440  135.3410  152.4930 N   0  0  0  0  0  0  0  0  0  0  0  0
  134.9800  135.8630  151.9530 H   0  0  0  0  0  0  0  0  0  0  0  0
  136.3170  136.6160  154.6450 C   0  0  0  0  0  3  0  0  0  0  0  0
  136.0860  135.4000  154.1180 C   0  0  0  0  0  3  0  0  0  0  0  0
  139.7480  138.2610  154.5390 C   0  0  0  0  0  0  0  0  0  0  0  0
  138.4830  137.8090  154.1450 C   0  0  0  0  0  3  0  0  0  0  0  0
  137.6500  137.1160  155.0380 C   0  0  0  0  0  0  0  0  0  0  0  0
  138.1200  136.8460  156.3290 C   0  0  0  0  0  3  0  0  0  0  0  0
  139.3820  137.2840  156.7350 C   0  0  0  0  0  3  0  0  0  0  0  0
  140.1870  137.9930  155.8430 C   0  0  0  0  0  0  0  0  0  0  0  0
  141.2980  138.2330  152.7250 C   0  0  0  0  0  1  0  0  0  0  0  0
  140.6190  138.9580  153.7390 O   0  0  0  0  0  0  0  0  0  0  0  0
  141.4230  138.4300  156.2370 O   0  0  0  0  0  0  0  0  0  0  0  0
  142.1410  138.4110  155.6350 H   0  0  0  0  0  0  0  0  0  0  0  0
  133.0640  134.9870  151.9180 C   0  0  0  0  0  2  0  0  0  0  0  0
  132.9910  135.2850  150.4420 C   0  0  0  0  0  0  0  0  0  0  0  0
  132.7350  136.5870  150.0030 C   0  0  0  0  0  3  0  0  0  0  0  0
  132.6400  136.8710  148.6410 C   0  0  0  0  0  3  0  0  0  0  0  0
  132.8100  135.8570  147.6930 C   0  0  0  0  0  0  0  0  0  0  0  0
  133.0800  134.5460  148.1030 C   0  0  0  0  0  0  0  0  0  0  0  0
  133.1720  134.2760  149.4810 C   0  0  0  0  0  3  0  0  0  0  0  0
  132.7070  136.1900  146.3710 O   0  0  0  0  0  0  0  0  0  0  0  0
  133.3870  136.6850  145.9590 H   0  0  0  0  0  0  0  0  0  0  0  0
  133.2700  133.4350  147.3250 O   0  0  0  0  0  0  0  0  0  0  0  0
  134.5410  133.2510  146.7170 C   0  0  0  0  0  1  0  0  0  0  0  0
  1  6  1  0  0  0  0
  1  2  2  0  0  0  0
  3  1  1  0  0  0  0
  4  3  1  0  0  0  0
  5  9  1  0  0  0  0
  6  5  2  0  0  0  0
  7 12  1  0  0  0  0
  8  7  2  0  0  0  0
  8  9  1  0  0  0  0
  9 10  2  0  0  0  0
 10 11  1  0  0  0  0
 12 15  1  0  0  0  0
 12 11  2  0  0  0  0
 13 14  1  0  0  0  0
 14  7  1  0  0  0  0
 16 15  1  0  0  0  0
 17  3  1  0  0  0  0
 18 17  1  0  0  0  0
 19 18  1  0  0  0  0
 20 19  2  0  0  0  0
 21 22  2  0  0  0  0
 21 20  1  0  0  0  0
 22 23  1  0  0  0  0
 23 18  2  0  0  0  0
 24 21  1  0  0  0  0
 25 24  1  0  0  0  0
 26 22  1  0  0  0  0
 27 26  1  0  0  0  0
M  END
>  <MODEL>
6

>  <REMARK>
 VINA RESULT:    -7.279      1.384      8.385
 INTER + INTRA:         -10.748
 INTER:                 -10.293
 INTRA:                  -0.455
 UNBOUND:                -0.490
  Name = CHEMBL204374
  10 active torsions:
  status: ('A' for Active; 'I' for Inactive)
    1  A    between atoms: C_1  and  O_2
    2  A    between atoms: O_2  and  C_3
    3  A    between atoms: C_5  and  C_6
    4  A    between atoms: C_7  and  C_8
    5  A    between atoms: N_10  and  C_11
    6  A    between atoms: C_11  and  C_12
    7  A    between atoms: C_15  and  O_16
    8  A    between atoms: C_17  and  O_18
    9  A    between atoms: O_18  and  C_19
   10  A    between atoms: C_23  and  O_24
                            x       y       z     vdW  Elec       q    Type
                         _______ _______ _______ _____ _____    ______ ____

>  <TORSDO>
F 8

>  <SCORE>
-7.279

>  <RMSD_LB>
1.384

>  <RMSD_UB>
8.385

$$$$
CHEMBL204374
 OpenBabel10172500223D

 27 28  0  0  0  0  0  0  0  0999 V2000
  134.3220  135.5770  153.7320 C   0  0  0  0  0  0  0  0  0  0  0  0
  133.8540  136.6420  154.1020 O   0  0  0  0  0  0  0  0  0  0  0  0
  134.7940  134.5970  154.5690 N   0  0  0  0  0  0  0  0  0  0  0  0
  135.1310  133.7590  154.1770 H   0  0  0  0  0  0  0  0  0  0  0  0
  133.3810  134.8230  151.5820 C   0  0  0  0  0  3  0  0  0  0  0  0
  134.4520  135.2140  152.2930 C   0  0  0  0  0  3  0  0  0  0  0  0
  133.1730  135.0210  147.7860 C   0  0  0  0  0  0  0  0  0  0  0  0
  133.1450  135.3930  149.1360 C   0  0  0  0  0  3  0  0  0  0  0  0
  133.4160  134.4610  150.1510 C   0  0  0  0  0  0  0  0  0  0  0  0
  133.6780  133.1320  149.7940 C   0  0  0  0  0  3  0  0  0  0  0  0
  133.7020  132.7450  148.4530 C   0  0  0  0  0  3  0  0  0  0  0  0
  133.4550  133.6890  147.4570 C   0  0  0  0  0  0  0  0  0  0  0  0
  133.7490  137.0270  146.6290 C   0  0  0  0  0  1  0  0  0  0  0  0
  132.9360  135.8680  146.7320 O   0  0  0  0  0  0  0  0  0  0  0  0
  133.4820  133.3160  146.1400 O   0  0  0  0  0  0  0  0  0  0  0  0
  133.4470  132.4080  145.9090 H   0  0  0  0  0  0  0  0  0  0  0  0
  134.8140  134.7520  156.0070 C   0  0  0  0  0  2  0  0  0  0  0  0
  135.9420  135.6350  156.4780 C   0  0  0  0  0  0  0  0  0  0  0  0
  137.0440  135.8650  155.6490 C   0  0  0  0  0  3  0  0  0  0  0  0
  138.1050  136.6590  156.0830 C   0  0  0  0  0  3  0  0  0  0  0  0
  138.0760  137.2470  157.3510 C   0  0  0  0  0  0  0  0  0  0  0  0
  136.9810  137.0450  158.1980 C   0  0  0  0  0  0  0  0  0  0  0  0
  135.9180  136.2400  157.7460 C   0  0  0  0  0  3  0  0  0  0  0  0
  139.1420  138.0170  157.7260 O   0  0  0  0  0  0  0  0  0  0  0  0
  139.2140  138.8990  157.4180 H   0  0  0  0  0  0  0  0  0  0  0  0
  136.7830  137.5330  159.4630 O   0  0  0  0  0  0  0  0  0  0  0  0
  136.7960  136.6130  160.5450 C   0  0  0  0  0  1  0  0  0  0  0  0
  1  2  2  0  0  0  0
  1  3  1  0  0  0  0
  3 17  1  0  0  0  0
  4  3  1  0  0  0  0
  5  6  2  0  0  0  0
  6  1  1  0  0  0  0
  7  8  1  0  0  0  0
  8  9  2  0  0  0  0
  9  5  1  0  0  0  0
 10  9  1  0  0  0  0
 11 10  2  0  0  0  0
 12  7  2  0  0  0  0
 12 11  1  0  0  0  0
 13 14  1  0  0  0  0
 14  7  1  0  0  0  0
 15 12  1  0  0  0  0
 16 15  1  0  0  0  0
 17 18  1  0  0  0  0
 18 23  1  0  0  0  0
 19 20  1  0  0  0  0
 19 18  2  0  0  0  0
 20 21  2  0  0  0  0
 21 24  1  0  0  0  0
 21 22  1  0  0  0  0
 22 26  1  0  0  0  0
 23 22  2  0  0  0  0
 25 24  1  0  0  0  0
 26 27  1  0  0  0  0
M  END
>  <MODEL>
7

>  <REMARK>
 VINA RESULT:    -7.240      2.014      3.008
 INTER + INTRA:         -10.692
 INTER:                 -10.321
 INTRA:                  -0.371
 UNBOUND:                -0.490
  Name = CHEMBL204374
  10 active torsions:
  status: ('A' for Active; 'I' for Inactive)
    1  A    between atoms: C_1  and  O_2
    2  A    between atoms: O_2  and  C_3
    3  A    between atoms: C_5  and  C_6
    4  A    between atoms: C_7  and  C_8
    5  A    between atoms: N_10  and  C_11
    6  A    between atoms: C_11  and  C_12
    7  A    between atoms: C_15  and  O_16
    8  A    between atoms: C_17  and  O_18
    9  A    between atoms: O_18  and  C_19
   10  A    between atoms: C_23  and  O_24
                            x       y       z     vdW  Elec       q    Type
                         _______ _______ _______ _____ _____    ______ ____

>  <TORSDO>
F 8

>  <SCORE>
-7.240

>  <RMSD_LB>
2.014

>  <RMSD_UB>
3.008

$$$$
CHEMBL204374
 OpenBabel10172500223D

 27 28  0  0  0  0  0  0  0  0999 V2000
  134.2550  134.0130  153.6720 C   0  0  0  0  0  0  0  0  0  0  0  0
  134.0400  132.8160  153.7840 O   0  0  0  0  0  0  0  0  0  0  0  0
  134.1540  134.7190  152.4980 N   0  0  0  0  0  0  0  0  0  0  0  0
  134.3240  135.6890  152.5120 H   0  0  0  0  0  0  0  0  0  0  0  0
  135.9700  135.1720  155.0100 C   0  0  0  0  0  3  0  0  0  0  0  0
  134.6750  134.8640  154.8190 C   0  0  0  0  0  3  0  0  0  0  0  0
  136.6890  136.5610  158.4810 C   0  0  0  0  0  0  0  0  0  0  0  0
  136.2100  135.7330  157.4580 C   0  0  0  0  0  3  0  0  0  0  0  0
  136.4730  136.0210  156.1090 C   0  0  0  0  0  0  0  0  0  0  0  0
  137.1930  137.1790  155.7940 C   0  0  0  0  0  3  0  0  0  0  0  0
  137.6700  138.0190  156.8020 C   0  0  0  0  0  3  0  0  0  0  0  0
  137.4220  137.7050  158.1380 C   0  0  0  0  0  0  0  0  0  0  0  0
  135.1620  136.1210  160.2620 C   0  0  0  0  0  1  0  0  0  0  0  0
  136.4930  136.3470  159.8230 O   0  0  0  0  0  0  0  0  0  0  0  0
  137.8920  138.5220  159.1310 O   0  0  0  0  0  0  0  0  0  0  0  0
  138.5920  138.2340  159.6830 H   0  0  0  0  0  0  0  0  0  0  0  0
  133.8100  134.0880  151.2430 C   0  0  0  0  0  2  0  0  0  0  0  0
  133.6430  135.0820  150.1220 C   0  0  0  0  0  0  0  0  0  0  0  0
  132.7600  136.1570  150.2660 C   0  0  0  0  0  3  0  0  0  0  0  0
  132.5780  137.0690  149.2260 C   0  0  0  0  0  3  0  0  0  0  0  0
  133.2860  136.9280  148.0290 C   0  0  0  0  0  0  0  0  0  0  0  0
  134.1850  135.8690  147.8610 C   0  0  0  0  0  0  0  0  0  0  0  0
  134.3570  134.9560  148.9190 C   0  0  0  0  0  3  0  0  0  0  0  0
  133.0690  137.8500  147.0430 O   0  0  0  0  0  0  0  0  0  0  0  0
  132.3830  137.7170  146.4200 H   0  0  0  0  0  0  0  0  0  0  0  0
  134.9550  135.5720  146.7670 O   0  0  0  0  0  0  0  0  0  0  0  0
  134.3920  134.7490  145.7560 C   0  0  0  0  0  1  0  0  0  0  0  0
  1  2  2  0  0  0  0
  1  6  1  0  0  0  0
  3  4  1  0  0  0  0
  3  1  1  0  0  0  0
  5  9  1  0  0  0  0
  6  5  2  0  0  0  0
  7 14  1  0  0  0  0
  8  7  2  0  0  0  0
  9  8  1  0  0  0  0
 10  9  2  0  0  0  0
 10 11  1  0  0  0  0
 11 12  2  0  0  0  0
 12  7  1  0  0  0  0
 12 15  1  0  0  0  0
 14 13  1  0  0  0  0
 15 16  1  0  0  0  0
 17  3  1  0  0  0  0
 18 19  1  0  0  0  0
 18 17  1  0  0  0  0
 20 19  2  0  0  0  0
 21 20  1  0  0  0  0
 22 21  2  0  0  0  0
 22 23  1  0  0  0  0
 23 18  2  0  0  0  0
 24 21  1  0  0  0  0
 25 24  1  0  0  0  0
 26 22  1  0  0  0  0
 27 26  1  0  0  0  0
M  END
>  <MODEL>
8

>  <REMARK>
 VINA RESULT:    -7.199      2.382      8.630
 INTER + INTRA:         -10.635
 INTER:                 -10.145
 INTRA:                  -0.490
 UNBOUND:                -0.490
  Name = CHEMBL204374
  10 active torsions:
  status: ('A' for Active; 'I' for Inactive)
    1  A    between atoms: C_1  and  O_2
    2  A    between atoms: O_2  and  C_3
    3  A    between atoms: C_5  and  C_6
    4  A    between atoms: C_7  and  C_8
    5  A    between atoms: N_10  and  C_11
    6  A    between atoms: C_11  and  C_12
    7  A    between atoms: C_15  and  O_16
    8  A    between atoms: C_17  and  O_18
    9  A    between atoms: O_18  and  C_19
   10  A    between atoms: C_23  and  O_24
                            x       y       z     vdW  Elec       q    Type
                         _______ _______ _______ _____ _____    ______ ____

>  <TORSDO>
F 8

>  <SCORE>
-7.199

>  <RMSD_LB>
2.382

>  <RMSD_UB>
8.630

$$$$
CHEMBL204374
 OpenBabel10172500223D

 27 28  0  0  0  0  0  0  0  0999 V2000
  134.4470  134.3450  152.1710 C   0  0  0  0  0  0  0  0  0  0  0  0
  135.1440  133.6980  151.4060 O   0  0  0  0  0  0  0  0  0  0  0  0
  133.1180  134.6280  151.9680 N   0  0  0  0  0  0  0  0  0  0  0  0
  132.6320  135.1380  152.6550 H   0  0  0  0  0  0  0  0  0  0  0  0
  136.0730  135.7030  153.4310 C   0  0  0  0  0  3  0  0  0  0  0  0
  134.9710  134.9310  153.4350 C   0  0  0  0  0  3  0  0  0  0  0  0
  138.3070  137.7630  155.7240 C   0  0  0  0  0  0  0  0  0  0  0  0
  137.7690  137.1850  154.5670 C   0  0  0  0  0  3  0  0  0  0  0  0
  136.6520  136.3370  154.6330 C   0  0  0  0  0  0  0  0  0  0  0  0
  136.1000  136.0430  155.8860 C   0  0  0  0  0  3  0  0  0  0  0  0
  136.6290  136.6060  157.0480 C   0  0  0  0  0  3  0  0  0  0  0  0
  137.7240  137.4660  156.9630 C   0  0  0  0  0  0  0  0  0  0  0  0
  140.6780  138.0330  155.6630 C   0  0  0  0  0  1  0  0  0  0  0  0
  139.3850  138.6130  155.7500 O   0  0  0  0  0  0  0  0  0  0  0  0
  138.2440  138.0260  158.0990 O   0  0  0  0  0  0  0  0  0  0  0  0
  138.3810  138.9510  158.1450 H   0  0  0  0  0  0  0  0  0  0  0  0
  132.4090  134.2030  150.7810 C   0  0  0  0  0  2  0  0  0  0  0  0
  132.8100  134.9860  149.5560 C   0  0  0  0  0  0  0  0  0  0  0  0
  132.7490  136.3830  149.5690 C   0  0  0  0  0  3  0  0  0  0  0  0
  133.0920  137.1180  148.4340 C   0  0  0  0  0  3  0  0  0  0  0  0
  133.5140  136.4680  147.2710 C   0  0  0  0  0  0  0  0  0  0  0  0
  133.5960  135.0720  147.2330 C   0  0  0  0  0  0  0  0  0  0  0  0
  133.2440  134.3440  148.3850 C   0  0  0  0  0  3  0  0  0  0  0  0
  133.8390  137.2360  146.1880 O   0  0  0  0  0  0  0  0  0  0  0  0
  133.5970  138.1410  146.1660 H   0  0  0  0  0  0  0  0  0  0  0  0
  133.9790  134.2700  146.1890 O   0  0  0  0  0  0  0  0  0  0  0  0
  135.3670  134.0370  145.9980 C   0  0  0  0  0  1  0  0  0  0  0  0
  1  6  1  0  0  0  0
  2  1  2  0  0  0  0
  3  1  1  0  0  0  0
  3  4  1  0  0  0  0
  5  6  2  0  0  0  0
  5  9  1  0  0  0  0
  7 14  1  0  0  0  0
  7 12  1  0  0  0  0
  8  9  1  0  0  0  0
  8  7  2  0  0  0  0
  9 10  2  0  0  0  0
 10 11  1  0  0  0  0
 12 11  2  0  0  0  0
 12 15  1  0  0  0  0
 13 14  1  0  0  0  0
 15 16  1  0  0  0  0
 17  3  1  0  0  0  0
 18 19  1  0  0  0  0
 18 17  1  0  0  0  0
 20 19  2  0  0  0  0
 21 20  1  0  0  0  0
 22 21  2  0  0  0  0
 22 23  1  0  0  0  0
 23 18  2  0  0  0  0
 24 21  1  0  0  0  0
 25 24  1  0  0  0  0
 26 22  1  0  0  0  0
 27 26  1  0  0  0  0
M  END
>  <MODEL>
9

>  <REMARK>
 VINA RESULT:    -7.138      1.777      8.342
 INTER + INTRA:         -10.549
 INTER:                 -10.001
 INTRA:                  -0.548
 UNBOUND:                -0.490
  Name = CHEMBL204374
  10 active torsions:
  status: ('A' for Active; 'I' for Inactive)
    1  A    between atoms: C_1  and  O_2
    2  A    between atoms: O_2  and  C_3
    3  A    between atoms: C_5  and  C_6
    4  A    between atoms: C_7  and  C_8
    5  A    between atoms: N_10  and  C_11
    6  A    between atoms: C_11  and  C_12
    7  A    between atoms: C_15  and  O_16
    8  A    between atoms: C_17  and  O_18
    9  A    between atoms: O_18  and  C_19
   10  A    between atoms: C_23  and  O_24
                            x       y       z     vdW  Elec       q    Type
                         _______ _______ _______ _____ _____    ______ ____

>  <TORSDO>
F 8

>  <SCORE>
-7.138

>  <RMSD_LB>
1.777

>  <RMSD_UB>
8.342

$$$$
