CHEMBL3456995
 OpenBabel10172500473D

 25 27  0  0  0  0  0  0  0  0999 V2000
  135.0510  134.8570  154.1680 N   0  0  0  0  0  0  0  0  0  0  0  0
  134.8460  135.0650  155.5040 C   0  0  0  0  0  0  0  0  0  0  0  0
  133.9660  134.5020  156.1480 O   0  0  0  0  0  0  0  0  0  0  0  0
  135.7480  135.8800  156.1360 N   0  0  0  0  0  0  0  0  0  0  0  0
  136.6460  136.6560  155.4500 C   0  0  0  0  0  0  0  0  0  0  0  0
  136.6640  136.8640  154.1530 N   0  0  0  0  0  0  0  0  0  0  0  0
  137.7120  137.6470  153.7700 N   0  0  0  0  0  0  0  0  0  0  0  0
  138.4470  138.0090  154.7970 C   0  0  0  0  0  0  0  0  0  0  0  0
  137.8900  137.4280  156.3180 S   0  0  0  0  0  0  0  0  0  0  0  0
  135.8150  135.3120  153.7470 H   0  0  0  0  0  0  0  0  0  0  0  0
  135.7520  135.9100  157.1210 H   0  0  0  0  0  0  0  0  0  0  0  0
  139.6860  138.8780  154.6080 C   0  0  0  0  0  3  0  0  0  0  0  0
  140.6390  138.5080  153.4840 C   0  0  0  0  0  2  0  0  0  0  0  0
  141.0440  138.2570  154.8950 C   0  0  0  0  0  2  0  0  0  0  0  0
  134.2300  134.0220  153.3360 C   0  0  0  0  0  2  0  0  0  0  0  0
  134.3650  133.4760  149.5260 C   0  0  0  0  0  0  0  0  0  0  0  0
  133.9410  133.4160  150.8610 C   0  0  0  0  0  3  0  0  0  0  0  0
  134.6970  134.0080  151.8950 C   0  0  0  0  0  0  0  0  0  0  0  0
  135.8840  134.6730  151.5600 C   0  0  0  0  0  3  0  0  0  0  0  0
  136.3170  134.7410  150.2360 C   0  0  0  0  0  3  0  0  0  0  0  0
  135.5580  134.1470  149.2290 C   0  0  0  0  0  0  0  0  0  0  0  0
  132.5630  133.6480  147.9740 C   0  0  0  0  0  1  0  0  0  0  0  0
  133.6940  132.9400  148.4580 O   0  0  0  0  0  0  0  0  0  0  0  0
  135.9790  134.2260  147.9280 O   0  0  0  0  0  0  0  0  0  0  0  0
  136.8380  133.9320  147.6940 H   0  0  0  0  0  0  0  0  0  0  0  0
  1  2  1  0  0  0  0
  2  4  1  0  0  0  0
  2  3  2  0  0  0  0
  4 11  1  0  0  0  0
  5  4  1  0  0  0  0
  5  9  1  0  0  0  0
  6  5  2  0  0  0  0
  7  6  1  0  0  0  0
  7  8  2  0  0  0  0
  8  9  1  0  0  0  0
 10  1  1  0  0  0  0
 12  8  1  0  0  0  0
 12 14  1  0  0  0  0
 13 12  1  0  0  0  0
 13 14  1  0  0  0  0
 15  1  1  0  0  0  0
 16 17  1  0  0  0  0
 17 18  2  0  0  0  0
 18 15  1  0  0  0  0
 19 18  1  0  0  0  0
 20 19  2  0  0  0  0
 21 16  2  0  0  0  0
 21 20  1  0  0  0  0
 22 23  1  0  0  0  0
 23 16  1  0  0  0  0
 24 21  1  0  0  0  0
 25 24  1  0  0  0  0
M  END
>  <MODEL>
1

>  <REMARK>
 VINA RESULT:    -7.323      0.000      0.000
 INTER + INTRA:          -9.562
 INTER:                  -9.196
 INTRA:                  -0.366
 UNBOUND:                -0.312
  Name = CHEMBL3456995
  6 active torsions:
  status: ('A' for Active; 'I' for Inactive)
    1  A    between atoms: C_1  and  O_2
    2  A    between atoms: O_2  and  C_3
    3  A    between atoms: C_5  and  C_6
    4  A    between atoms: C_6  and  N_7
    5  A    between atoms: C_14  and  C_15
    6  A    between atoms: C_21  and  O_22
                            x       y       z     vdW  Elec       q    Type
                         _______ _______ _______ _____ _____    ______ ____

>  <TORSDO>
F 5

>  <SCORE>
-7.323

>  <RMSD_LB>
0.000

>  <RMSD_UB>
0.000

$$$$
CHEMBL3456995
 OpenBabel10172500473D

 25 27  0  0  0  0  0  0  0  0999 V2000
  134.1560  135.5050  150.8400 N   0  0  0  0  0  0  0  0  0  0  0  0
  133.1110  135.0690  151.6060 C   0  0  0  0  0  0  0  0  0  0  0  0
  132.0320  134.7180  151.1390 O   0  0  0  0  0  0  0  0  0  0  0  0
  133.3540  134.9460  152.9500 N   0  0  0  0  0  0  0  0  0  0  0  0
  134.4720  135.4670  153.5460 C   0  0  0  0  0  0  0  0  0  0  0  0
  135.3480  136.2720  152.9900 N   0  0  0  0  0  0  0  0  0  0  0  0
  136.3760  136.5790  153.8310 N   0  0  0  0  0  0  0  0  0  0  0  0
  136.2360  135.9950  154.9990 C   0  0  0  0  0  0  0  0  0  0  0  0
  134.8130  135.0400  155.1580 S   0  0  0  0  0  0  0  0  0  0  0  0
  135.0020  135.7150  151.2980 H   0  0  0  0  0  0  0  0  0  0  0  0
  132.7000  134.4640  153.5070 H   0  0  0  0  0  0  0  0  0  0  0  0
  137.2760  136.1790  156.0990 C   0  0  0  0  0  3  0  0  0  0  0  0
  136.8520  135.8690  157.5250 C   0  0  0  0  0  2  0  0  0  0  0  0
  137.0510  137.2870  157.1150 C   0  0  0  0  0  2  0  0  0  0  0  0
  134.1070  135.6800  149.4150 C   0  0  0  0  0  2  0  0  0  0  0  0
  136.2740  133.3390  147.2560 C   0  0  0  0  0  0  0  0  0  0  0  0
  135.7890  134.4950  147.8820 C   0  0  0  0  0  3  0  0  0  0  0  0
  134.6170  134.4640  148.6690 C   0  0  0  0  0  0  0  0  0  0  0  0
  133.9460  133.2430  148.8220 C   0  0  0  0  0  3  0  0  0  0  0  0
  134.4180  132.0850  148.2050 C   0  0  0  0  0  3  0  0  0  0  0  0
  135.5760  132.1370  147.4300 C   0  0  0  0  0  0  0  0  0  0  0  0
  137.4410  134.0660  145.3080 C   0  0  0  0  0  1  0  0  0  0  0  0
  137.4040  133.2720  146.4840 O   0  0  0  0  0  0  0  0  0  0  0  0
  136.0440  130.9950  146.8360 O   0  0  0  0  0  0  0  0  0  0  0  0
  136.8230  130.5840  147.1570 H   0  0  0  0  0  0  0  0  0  0  0  0
  1 10  1  0  0  0  0
  1  2  1  0  0  0  0
  2  4  1  0  0  0  0
  3  2  2  0  0  0  0
  4 11  1  0  0  0  0
  4  5  1  0  0  0  0
  5  9  1  0  0  0  0
  6  5  2  0  0  0  0
  6  7  1  0  0  0  0
  7  8  2  0  0  0  0
  8  9  1  0  0  0  0
  8 12  1  0  0  0  0
 12 14  1  0  0  0  0
 12 13  1  0  0  0  0
 14 13  1  0  0  0  0
 15  1  1  0  0  0  0
 16 21  2  0  0  0  0
 16 17  1  0  0  0  0
 17 18  2  0  0  0  0
 18 19  1  0  0  0  0
 18 15  1  0  0  0  0
 20 19  2  0  0  0  0
 21 20  1  0  0  0  0
 22 23  1  0  0  0  0
 23 16  1  0  0  0  0
 24 25  1  0  0  0  0
 24 21  1  0  0  0  0
M  END
>  <MODEL>
2

>  <REMARK>
 VINA RESULT:    -7.291      2.788      3.928
 INTER + INTRA:          -9.521
 INTER:                  -9.302
 INTRA:                  -0.219
 UNBOUND:                -0.312
  Name = CHEMBL3456995
  6 active torsions:
  status: ('A' for Active; 'I' for Inactive)
    1  A    between atoms: C_1  and  O_2
    2  A    between atoms: O_2  and  C_3
    3  A    between atoms: C_5  and  C_6
    4  A    between atoms: C_6  and  N_7
    5  A    between atoms: C_14  and  C_15
    6  A    between atoms: C_21  and  O_22
                            x       y       z     vdW  Elec       q    Type
                         _______ _______ _______ _____ _____    ______ ____

>  <TORSDO>
F 5

>  <SCORE>
-7.291

>  <RMSD_LB>
2.788

>  <RMSD_UB>
3.928

$$$$
CHEMBL3456995
 OpenBabel10172500473D

 25 27  0  0  0  0  0  0  0  0999 V2000
  135.2170  135.5540  153.7020 N   0  0  0  0  0  0  0  0  0  0  0  0
  133.9310  135.1540  153.9360 C   0  0  0  0  0  0  0  0  0  0  0  0
  133.3760  135.2680  155.0250 O   0  0  0  0  0  0  0  0  0  0  0  0
  133.2320  134.6930  152.8510 N   0  0  0  0  0  0  0  0  0  0  0  0
  133.8380  134.3960  151.6580 C   0  0  0  0  0  0  0  0  0  0  0  0
  135.1310  134.3400  151.4340 N   0  0  0  0  0  0  0  0  0  0  0  0
  135.4190  134.0630  150.1300 N   0  0  0  0  0  0  0  0  0  0  0  0
  134.3260  133.9150  149.4150 C   0  0  0  0  0  0  0  0  0  0  0  0
  132.8600  134.0840  150.3000 S   0  0  0  0  0  0  0  0  0  0  0  0
  135.5610  135.4740  152.7840 H   0  0  0  0  0  0  0  0  0  0  0  0
  132.2580  134.5710  152.9310 H   0  0  0  0  0  0  0  0  0  0  0  0
  134.4000  133.6160  147.9220 C   0  0  0  0  0  3  0  0  0  0  0  0
  135.5270  134.2590  147.1320 C   0  0  0  0  0  2  0  0  0  0  0  0
  134.1340  134.7550  146.9510 C   0  0  0  0  0  2  0  0  0  0  0  0
  136.1020  136.0840  154.7020 C   0  0  0  0  0  2  0  0  0  0  0  0
  139.1790  138.3690  154.3200 C   0  0  0  0  0  0  0  0  0  0  0  0
  138.1370  137.6340  154.9000 C   0  0  0  0  0  3  0  0  0  0  0  0
  137.1960  136.9460  154.1040 C   0  0  0  0  0  0  0  0  0  0  0  0
  137.3290  137.0030  152.7100 C   0  0  0  0  0  3  0  0  0  0  0  0
  138.3620  137.7310  152.1190 C   0  0  0  0  0  3  0  0  0  0  0  0
  139.2790  138.4070  152.9230 C   0  0  0  0  0  0  0  0  0  0  0  0
  141.0880  138.2990  155.7470 C   0  0  0  0  0  1  0  0  0  0  0  0
  140.1410  139.0590  155.0100 O   0  0  0  0  0  0  0  0  0  0  0  0
  140.3000  139.1100  152.3400 O   0  0  0  0  0  0  0  0  0  0  0  0
  140.9970  138.6560  151.9090 H   0  0  0  0  0  0  0  0  0  0  0  0
  1  2  1  0  0  0  0
  1 15  1  0  0  0  0
  2  3  2  0  0  0  0
  4 11  1  0  0  0  0
  4  2  1  0  0  0  0
  5  4  1  0  0  0  0
  6  5  2  0  0  0  0
  7  6  1  0  0  0  0
  8  7  2  0  0  0  0
  8  9  1  0  0  0  0
  9  5  1  0  0  0  0
 10  1  1  0  0  0  0
 12  8  1  0  0  0  0
 13 12  1  0  0  0  0
 14 13  1  0  0  0  0
 14 12  1  0  0  0  0
 16 17  1  0  0  0  0
 16 23  1  0  0  0  0
 18 15  1  0  0  0  0
 18 17  2  0  0  0  0
 19 18  1  0  0  0  0
 20 19  2  0  0  0  0
 20 21  1  0  0  0  0
 21 16  2  0  0  0  0
 23 22  1  0  0  0  0
 24 21  1  0  0  0  0
 25 24  1  0  0  0  0
M  END
>  <MODEL>
3

>  <REMARK>
 VINA RESULT:    -7.116      3.460      7.084
 INTER + INTRA:          -9.300
 INTER:                  -8.869
 INTRA:                  -0.431
 UNBOUND:                -0.312
  Name = CHEMBL3456995
  6 active torsions:
  status: ('A' for Active; 'I' for Inactive)
    1  A    between atoms: C_1  and  O_2
    2  A    between atoms: O_2  and  C_3
    3  A    between atoms: C_5  and  C_6
    4  A    between atoms: C_6  and  N_7
    5  A    between atoms: C_14  and  C_15
    6  A    between atoms: C_21  and  O_22
                            x       y       z     vdW  Elec       q    Type
                         _______ _______ _______ _____ _____    ______ ____

>  <TORSDO>
F 5

>  <SCORE>
-7.116

>  <RMSD_LB>
3.460

>  <RMSD_UB>
7.084

$$$$
CHEMBL3456995
 OpenBabel10172500473D

 25 27  0  0  0  0  0  0  0  0999 V2000
  136.6770  136.8450  155.0870 N   0  0  0  0  0  0  0  0  0  0  0  0
  137.1450  137.6410  156.0950 C   0  0  0  0  0  0  0  0  0  0  0  0
  136.5440  137.8170  157.1510 O   0  0  0  0  0  0  0  0  0  0  0  0
  138.3950  138.1740  155.9160 N   0  0  0  0  0  0  0  0  0  0  0  0
  139.0410  138.1440  154.7080 C   0  0  0  0  0  0  0  0  0  0  0  0
  138.5240  137.7800  153.5570 N   0  0  0  0  0  0  0  0  0  0  0  0
  139.4370  137.8160  152.5450 N   0  0  0  0  0  0  0  0  0  0  0  0
  140.6160  138.2130  152.9700 C   0  0  0  0  0  0  0  0  0  0  0  0
  140.6820  138.5940  154.6480 S   0  0  0  0  0  0  0  0  0  0  0  0
  137.2530  136.7190  154.2990 H   0  0  0  0  0  0  0  0  0  0  0  0
  138.8460  138.5950  156.6850 H   0  0  0  0  0  0  0  0  0  0  0  0
  141.8010  138.3150  152.0170 C   0  0  0  0  0  3  0  0  0  0  0  0
  142.0200  137.1690  151.0450 C   0  0  0  0  0  2  0  0  0  0  0  0
  142.9490  137.3350  152.1970 C   0  0  0  0  0  2  0  0  0  0  0  0
  135.4040  136.1800  155.0960 C   0  0  0  0  0  2  0  0  0  0  0  0
  133.6920  135.2470  151.7750 C   0  0  0  0  0  0  0  0  0  0  0  0
  133.9250  135.8220  153.0310 C   0  0  0  0  0  3  0  0  0  0  0  0
  135.0890  135.5200  153.7690 C   0  0  0  0  0  0  0  0  0  0  0  0
  136.0220  134.6330  153.2140 C   0  0  0  0  0  3  0  0  0  0  0  0
  135.8030  134.0540  151.9640 C   0  0  0  0  0  3  0  0  0  0  0  0
  134.6450  134.3630  151.2520 C   0  0  0  0  0  0  0  0  0  0  0  0
  132.6570  136.6050  150.1100 C   0  0  0  0  0  1  0  0  0  0  0  0
  132.5980  135.4870  150.9840 O   0  0  0  0  0  0  0  0  0  0  0  0
  134.4390  133.8020  150.0200 O   0  0  0  0  0  0  0  0  0  0  0  0
  133.5750  133.7730  149.6560 H   0  0  0  0  0  0  0  0  0  0  0  0
  1 15  1  0  0  0  0
  1  2  1  0  0  0  0
  2  3  2  0  0  0  0
  4  2  1  0  0  0  0
  4 11  1  0  0  0  0
  5  4  1  0  0  0  0
  6  5  2  0  0  0  0
  7  8  2  0  0  0  0
  7  6  1  0  0  0  0
  8  9  1  0  0  0  0
  9  5  1  0  0  0  0
 10  1  1  0  0  0  0
 12 14  1  0  0  0  0
 12  8  1  0  0  0  0
 13 12  1  0  0  0  0
 13 14  1  0  0  0  0
 16 17  1  0  0  0  0
 17 18  2  0  0  0  0
 18 15  1  0  0  0  0
 19 18  1  0  0  0  0
 20 19  2  0  0  0  0
 21 16  2  0  0  0  0
 21 20  1  0  0  0  0
 22 23  1  0  0  0  0
 23 16  1  0  0  0  0
 24 21  1  0  0  0  0
 25 24  1  0  0  0  0
M  END
>  <MODEL>
4

>  <REMARK>
 VINA RESULT:    -7.049      2.245      3.025
 INTER + INTRA:          -9.216
 INTER:                  -8.883
 INTRA:                  -0.332
 UNBOUND:                -0.312
  Name = CHEMBL3456995
  6 active torsions:
  status: ('A' for Active; 'I' for Inactive)
    1  A    between atoms: C_1  and  O_2
    2  A    between atoms: O_2  and  C_3
    3  A    between atoms: C_5  and  C_6
    4  A    between atoms: C_6  and  N_7
    5  A    between atoms: C_14  and  C_15
    6  A    between atoms: C_21  and  O_22
                            x       y       z     vdW  Elec       q    Type
                         _______ _______ _______ _____ _____    ______ ____

>  <TORSDO>
F 5

>  <SCORE>
-7.049

>  <RMSD_LB>
2.245

>  <RMSD_UB>
3.025

$$$$
CHEMBL3456995
 OpenBabel10172500473D

 25 27  0  0  0  0  0  0  0  0999 V2000
  138.7290  137.5240  150.9830 N   0  0  0  0  0  0  0  0  0  0  0  0
  138.1530  138.3390  150.0490 C   0  0  0  0  0  0  0  0  0  0  0  0
  138.5950  139.4460  149.7540 O   0  0  0  0  0  0  0  0  0  0  0  0
  137.0860  137.8180  149.3640 N   0  0  0  0  0  0  0  0  0  0  0  0
  136.4540  136.6650  149.7530 C   0  0  0  0  0  0  0  0  0  0  0  0
  136.6470  136.0130  150.8760 N   0  0  0  0  0  0  0  0  0  0  0  0
  135.8990  134.8760  150.9480 N   0  0  0  0  0  0  0  0  0  0  0  0
  135.1610  134.7120  149.8730 C   0  0  0  0  0  0  0  0  0  0  0  0
  135.3170  135.9620  148.7000 S   0  0  0  0  0  0  0  0  0  0  0  0
  138.3370  136.6310  151.1140 H   0  0  0  0  0  0  0  0  0  0  0  0
  136.7610  138.2890  148.5620 H   0  0  0  0  0  0  0  0  0  0  0  0
  134.2510  133.4980  149.7220 C   0  0  0  0  0  3  0  0  0  0  0  0
  133.1030  133.6010  148.7330 C   0  0  0  0  0  2  0  0  0  0  0  0
  132.8120  133.6220  150.1930 C   0  0  0  0  0  2  0  0  0  0  0  0
  139.8660  137.8780  151.7870 C   0  0  0  0  0  2  0  0  0  0  0  0
  137.9090  137.9590  155.1030 C   0  0  0  0  0  0  0  0  0  0  0  0
  138.1930  137.9370  153.7310 C   0  0  0  0  0  3  0  0  0  0  0  0
  139.5230  137.9720  153.2600 C   0  0  0  0  0  0  0  0  0  0  0  0
  140.5650  138.0190  154.1970 C   0  0  0  0  0  3  0  0  0  0  0  0
  140.2960  138.0410  155.5650 C   0  0  0  0  0  3  0  0  0  0  0  0
  138.9750  138.0090  156.0100 C   0  0  0  0  0  0  0  0  0  0  0  0
  135.9920  136.6630  155.6780 C   0  0  0  0  0  1  0  0  0  0  0  0
  136.6540  137.9190  155.6520 O   0  0  0  0  0  0  0  0  0  0  0  0
  138.7140  138.0170  157.3550 O   0  0  0  0  0  0  0  0  0  0  0  0
  139.4120  138.1470  157.9670 H   0  0  0  0  0  0  0  0  0  0  0  0
  1 10  1  0  0  0  0
  1 15  1  0  0  0  0
  2  1  1  0  0  0  0
  3  2  2  0  0  0  0
  4  5  1  0  0  0  0
  4  2  1  0  0  0  0
  5  6  2  0  0  0  0
  6  7  1  0  0  0  0
  8  7  2  0  0  0  0
  9  5  1  0  0  0  0
  9  8  1  0  0  0  0
 11  4  1  0  0  0  0
 12  8  1  0  0  0  0
 12 14  1  0  0  0  0
 13 12  1  0  0  0  0
 13 14  1  0  0  0  0
 15 18  1  0  0  0  0
 16 23  1  0  0  0  0
 16 21  1  0  0  0  0
 17 16  2  0  0  0  0
 18 17  1  0  0  0  0
 18 19  2  0  0  0  0
 19 20  1  0  0  0  0
 20 21  2  0  0  0  0
 21 24  1  0  0  0  0
 23 22  1  0  0  0  0
 24 25  1  0  0  0  0
M  END
>  <MODEL>
5

>  <REMARK>
 VINA RESULT:    -6.953      3.590      7.797
 INTER + INTRA:          -9.094
 INTER:                  -8.622
 INTRA:                  -0.472
 UNBOUND:                -0.312
  Name = CHEMBL3456995
  6 active torsions:
  status: ('A' for Active; 'I' for Inactive)
    1  A    between atoms: C_1  and  O_2
    2  A    between atoms: O_2  and  C_3
    3  A    between atoms: C_5  and  C_6
    4  A    between atoms: C_6  and  N_7
    5  A    between atoms: C_14  and  C_15
    6  A    between atoms: C_21  and  O_22
                            x       y       z     vdW  Elec       q    Type
                         _______ _______ _______ _____ _____    ______ ____

>  <TORSDO>
F 5

>  <SCORE>
-6.953

>  <RMSD_LB>
3.590

>  <RMSD_UB>
7.797

$$$$
CHEMBL3456995
 OpenBabel10172500473D

 25 27  0  0  0  0  0  0  0  0999 V2000
  133.5360  136.7470  146.2280 N   0  0  0  0  0  0  0  0  0  0  0  0
  133.4950  137.4570  145.0610 C   0  0  0  0  0  0  0  0  0  0  0  0
  132.8100  138.4650  144.9060 O   0  0  0  0  0  0  0  0  0  0  0  0
  134.3460  137.0440  144.0690 N   0  0  0  0  0  0  0  0  0  0  0  0
  135.0100  135.8450  144.1220 C   0  0  0  0  0  0  0  0  0  0  0  0
  134.8120  134.8830  144.9930 N   0  0  0  0  0  0  0  0  0  0  0  0
  135.6640  133.8350  144.8090 N   0  0  0  0  0  0  0  0  0  0  0  0
  136.4760  134.0440  143.7970 C   0  0  0  0  0  0  0  0  0  0  0  0
  136.2350  135.5400  142.9810 S   0  0  0  0  0  0  0  0  0  0  0  0
  134.1550  135.9840  146.2780 H   0  0  0  0  0  0  0  0  0  0  0  0
  134.4850  137.6290  143.2890 H   0  0  0  0  0  0  0  0  0  0  0  0
  137.5310  133.0130  143.4110 C   0  0  0  0  0  3  0  0  0  0  0  0
  137.8020  132.8060  141.9310 C   0  0  0  0  0  2  0  0  0  0  0  0
  137.0710  131.7560  142.6920 C   0  0  0  0  0  2  0  0  0  0  0  0
  132.7390  137.0360  147.3880 C   0  0  0  0  0  2  0  0  0  0  0  0
  133.2620  135.4080  150.8390 C   0  0  0  0  0  0  0  0  0  0  0  0
  133.1560  136.3760  149.8320 C   0  0  0  0  0  3  0  0  0  0  0  0
  132.9290  136.0110  148.4880 C   0  0  0  0  0  0  0  0  0  0  0  0
  132.8000  134.6500  148.1760 C   0  0  0  0  0  3  0  0  0  0  0  0
  132.9030  133.6760  149.1690 C   0  0  0  0  0  3  0  0  0  0  0  0
  133.1300  134.0570  150.4910 C   0  0  0  0  0  0  0  0  0  0  0  0
  134.8000  135.9610  152.5760 C   0  0  0  0  0  1  0  0  0  0  0  0
  133.4710  135.6680  152.1680 O   0  0  0  0  0  0  0  0  0  0  0  0
  133.2180  133.0990  151.4660 O   0  0  0  0  0  0  0  0  0  0  0  0
  134.0510  132.7350  151.6920 H   0  0  0  0  0  0  0  0  0  0  0  0
  1 10  1  0  0  0  0
  1 15  1  0  0  0  0
  2  1  1  0  0  0  0
  3  2  2  0  0  0  0
  4  5  1  0  0  0  0
  4  2  1  0  0  0  0
  5  6  2  0  0  0  0
  7  6  1  0  0  0  0
  8  7  2  0  0  0  0
  9  8  1  0  0  0  0
  9  5  1  0  0  0  0
 11  4  1  0  0  0  0
 12  8  1  0  0  0  0
 13 14  1  0  0  0  0
 13 12  1  0  0  0  0
 14 12  1  0  0  0  0
 15 18  1  0  0  0  0
 16 23  1  0  0  0  0
 17 16  2  0  0  0  0
 18 17  1  0  0  0  0
 19 18  2  0  0  0  0
 19 20  1  0  0  0  0
 20 21  2  0  0  0  0
 21 16  1  0  0  0  0
 21 24  1  0  0  0  0
 23 22  1  0  0  0  0
 24 25  1  0  0  0  0
M  END
>  <MODEL>
6

>  <REMARK>
 VINA RESULT:    -6.838      6.273      9.217
 INTER + INTRA:          -8.949
 INTER:                  -8.628
 INTRA:                  -0.321
 UNBOUND:                -0.312
  Name = CHEMBL3456995
  6 active torsions:
  status: ('A' for Active; 'I' for Inactive)
    1  A    between atoms: C_1  and  O_2
    2  A    between atoms: O_2  and  C_3
    3  A    between atoms: C_5  and  C_6
    4  A    between atoms: C_6  and  N_7
    5  A    between atoms: C_14  and  C_15
    6  A    between atoms: C_21  and  O_22
                            x       y       z     vdW  Elec       q    Type
                         _______ _______ _______ _____ _____    ______ ____

>  <TORSDO>
F 5

>  <SCORE>
-6.838

>  <RMSD_LB>
6.273

>  <RMSD_UB>
9.217

$$$$
CHEMBL3456995
 OpenBabel10172500473D

 25 27  0  0  0  0  0  0  0  0999 V2000
  137.4990  137.5540  154.4580 N   0  0  0  0  0  0  0  0  0  0  0  0
  137.1370  136.5680  155.3320 C   0  0  0  0  0  0  0  0  0  0  0  0
  137.6970  136.3790  156.4080 O   0  0  0  0  0  0  0  0  0  0  0  0
  136.0290  135.8350  154.9950 N   0  0  0  0  0  0  0  0  0  0  0  0
  135.4620  135.8900  153.7470 C   0  0  0  0  0  0  0  0  0  0  0  0
  135.9650  136.4820  152.6890 N   0  0  0  0  0  0  0  0  0  0  0  0
  135.1390  136.4000  151.6080 N   0  0  0  0  0  0  0  0  0  0  0  0
  134.0380  135.7400  151.8900 C   0  0  0  0  0  0  0  0  0  0  0  0
  133.9480  135.1510  153.5050 S   0  0  0  0  0  0  0  0  0  0  0  0
  136.9570  137.6650  153.6440 H   0  0  0  0  0  0  0  0  0  0  0  0
  135.6240  135.2460  155.6730 H   0  0  0  0  0  0  0  0  0  0  0  0
  132.9550  135.5340  150.8370 C   0  0  0  0  0  3  0  0  0  0  0  0
  132.3580  134.1430  150.7080 C   0  0  0  0  0  2  0  0  0  0  0  0
  133.2760  134.6430  149.6480 C   0  0  0  0  0  2  0  0  0  0  0  0
  138.6140  138.4410  154.6430 C   0  0  0  0  0  2  0  0  0  0  0  0
  142.1320  137.7740  153.2250 C   0  0  0  0  0  0  0  0  0  0  0  0
  141.1030  138.1220  154.1100 C   0  0  0  0  0  3  0  0  0  0  0  0
  139.7550  138.1380  153.6930 C   0  0  0  0  0  0  0  0  0  0  0  0
  139.4590  137.7870  152.3680 C   0  0  0  0  0  3  0  0  0  0  0  0
  140.4740  137.4380  151.4780 C   0  0  0  0  0  3  0  0  0  0  0  0
  141.8000  137.4310  151.9080 C   0  0  0  0  0  0  0  0  0  0  0  0
  144.0470  138.8830  154.1130 C   0  0  0  0  0  1  0  0  0  0  0  0
  143.4640  137.7210  153.5420 O   0  0  0  0  0  0  0  0  0  0  0  0
  142.7930  137.0750  151.0340 O   0  0  0  0  0  0  0  0  0  0  0  0
  143.6900  137.2400  151.2510 H   0  0  0  0  0  0  0  0  0  0  0  0
  1 15  1  0  0  0  0
  1  2  1  0  0  0  0
  2  3  2  0  0  0  0
  4  2  1  0  0  0  0
  4 11  1  0  0  0  0
  5  4  1  0  0  0  0
  6  5  2  0  0  0  0
  7  8  2  0  0  0  0
  7  6  1  0  0  0  0
  8  9  1  0  0  0  0
  9  5  1  0  0  0  0
 10  1  1  0  0  0  0
 12  8  1  0  0  0  0
 13 12  1  0  0  0  0
 14 13  1  0  0  0  0
 14 12  1  0  0  0  0
 16 23  1  0  0  0  0
 16 17  1  0  0  0  0
 18 17  2  0  0  0  0
 18 15  1  0  0  0  0
 19 18  1  0  0  0  0
 20 21  1  0  0  0  0
 20 19  2  0  0  0  0
 21 16  2  0  0  0  0
 23 22  1  0  0  0  0
 24 25  1  0  0  0  0
 24 21  1  0  0  0  0
M  END
>  <MODEL>
7

>  <REMARK>
 VINA RESULT:    -6.826      3.508      7.272
 INTER + INTRA:          -8.934
 INTER:                  -8.597
 INTRA:                  -0.337
 UNBOUND:                -0.312
  Name = CHEMBL3456995
  6 active torsions:
  status: ('A' for Active; 'I' for Inactive)
    1  A    between atoms: C_1  and  O_2
    2  A    between atoms: O_2  and  C_3
    3  A    between atoms: C_5  and  C_6
    4  A    between atoms: C_6  and  N_7
    5  A    between atoms: C_14  and  C_15
    6  A    between atoms: C_21  and  O_22
                            x       y       z     vdW  Elec       q    Type
                         _______ _______ _______ _____ _____    ______ ____

>  <TORSDO>
F 5

>  <SCORE>
-6.826

>  <RMSD_LB>
3.508

>  <RMSD_UB>
7.272

$$$$
CHEMBL3456995
 OpenBabel10172500473D

 25 27  0  0  0  0  0  0  0  0999 V2000
  143.3990  139.0220  154.1110 N   0  0  0  0  0  0  0  0  0  0  0  0
  142.0750  138.8930  154.4280 C   0  0  0  0  0  0  0  0  0  0  0  0
  141.5910  139.2940  155.4820 O   0  0  0  0  0  0  0  0  0  0  0  0
  141.2670  138.3690  153.4530 N   0  0  0  0  0  0  0  0  0  0  0  0
  141.7670  137.7620  152.3300 C   0  0  0  0  0  0  0  0  0  0  0  0
  143.0230  137.4490  152.1080 N   0  0  0  0  0  0  0  0  0  0  0  0
  143.2090  136.8970  150.8750 N   0  0  0  0  0  0  0  0  0  0  0  0
  142.0790  136.8090  150.2090 C   0  0  0  0  0  0  0  0  0  0  0  0
  140.6970  137.3800  151.0620 S   0  0  0  0  0  0  0  0  0  0  0  0
  143.6880  138.7200  153.2200 H   0  0  0  0  0  0  0  0  0  0  0  0
  140.2900  138.4290  153.5630 H   0  0  0  0  0  0  0  0  0  0  0  0
  142.0420  136.2370  148.7970 C   0  0  0  0  0  3  0  0  0  0  0  0
  140.9210  135.2680  148.4610 C   0  0  0  0  0  2  0  0  0  0  0  0
  142.3080  134.7500  148.6220 C   0  0  0  0  0  2  0  0  0  0  0  0
  144.3990  139.5670  154.9870 C   0  0  0  0  0  2  0  0  0  0  0  0
  148.1480  139.8630  154.1570 C   0  0  0  0  0  0  0  0  0  0  0  0
  146.8400  140.2050  154.5250 C   0  0  0  0  0  3  0  0  0  0  0  0
  145.8060  139.2450  154.5260 C   0  0  0  0  0  0  0  0  0  0  0  0
  146.1150  137.9280  154.1590 C   0  0  0  0  0  3  0  0  0  0  0  0
  147.4120  137.5730  153.7910 C   0  0  0  0  0  3  0  0  0  0  0  0
  148.4200  138.5370  153.7940 C   0  0  0  0  0  0  0  0  0  0  0  0
  149.1320  141.8460  153.2720 C   0  0  0  0  0  1  0  0  0  0  0  0
  149.2150  140.7220  154.1360 O   0  0  0  0  0  0  0  0  0  0  0  0
  149.6960  138.1830  153.4440 O   0  0  0  0  0  0  0  0  0  0  0  0
  150.3760  138.1810  154.0890 H   0  0  0  0  0  0  0  0  0  0  0  0
  1  2  1  0  0  0  0
  1 15  1  0  0  0  0
  2  3  2  0  0  0  0
  4 11  1  0  0  0  0
  4  2  1  0  0  0  0
  5  4  1  0  0  0  0
  6  5  2  0  0  0  0
  7  6  1  0  0  0  0
  8  7  2  0  0  0  0
  8  9  1  0  0  0  0
  9  5  1  0  0  0  0
 10  1  1  0  0  0  0
 12  8  1  0  0  0  0
 13 14  1  0  0  0  0
 13 12  1  0  0  0  0
 14 12  1  0  0  0  0
 16 17  1  0  0  0  0
 17 18  2  0  0  0  0
 18 15  1  0  0  0  0
 19 18  1  0  0  0  0
 20 21  1  0  0  0  0
 20 19  2  0  0  0  0
 21 16  2  0  0  0  0
 22 23  1  0  0  0  0
 23 16  1  0  0  0  0
 24 21  1  0  0  0  0
 24 25  1  0  0  0  0
M  END
>  <MODEL>
8

>  <REMARK>
 VINA RESULT:    -6.716      7.295     11.262
 INTER + INTRA:          -8.795
 INTER:                  -8.483
 INTRA:                  -0.312
 UNBOUND:                -0.312
  Name = CHEMBL3456995
  6 active torsions:
  status: ('A' for Active; 'I' for Inactive)
    1  A    between atoms: C_1  and  O_2
    2  A    between atoms: O_2  and  C_3
    3  A    between atoms: C_5  and  C_6
    4  A    between atoms: C_6  and  N_7
    5  A    between atoms: C_14  and  C_15
    6  A    between atoms: C_21  and  O_22
                            x       y       z     vdW  Elec       q    Type
                         _______ _______ _______ _____ _____    ______ ____

>  <TORSDO>
F 5

>  <SCORE>
-6.716

>  <RMSD_LB>
7.295

>  <RMSD_UB>
11.262

$$$$
CHEMBL3456995
 OpenBabel10172500473D

 25 27  0  0  0  0  0  0  0  0999 V2000
  134.2640  133.8220  146.9800 N   0  0  0  0  0  0  0  0  0  0  0  0
  135.0120  133.3480  145.9380 C   0  0  0  0  0  0  0  0  0  0  0  0
  135.4130  132.1900  145.8660 O   0  0  0  0  0  0  0  0  0  0  0  0
  135.2230  134.2170  144.8990 N   0  0  0  0  0  0  0  0  0  0  0  0
  134.9410  135.5550  144.9900 C   0  0  0  0  0  0  0  0  0  0  0  0
  134.6100  136.2090  146.0800 N   0  0  0  0  0  0  0  0  0  0  0  0
  134.3460  137.5240  145.8340 N   0  0  0  0  0  0  0  0  0  0  0  0
  134.4930  137.8170  144.5620 C   0  0  0  0  0  0  0  0  0  0  0  0
  134.9900  136.4980  143.5740 S   0  0  0  0  0  0  0  0  0  0  0  0
  133.9400  134.7500  146.9260 H   0  0  0  0  0  0  0  0  0  0  0  0
  135.5920  133.8660  144.0560 H   0  0  0  0  0  0  0  0  0  0  0  0
  134.2350  139.2290  144.0470 C   0  0  0  0  0  3  0  0  0  0  0  0
  133.2030  140.0670  144.7820 C   0  0  0  0  0  2  0  0  0  0  0  0
  132.8780  139.5280  143.4320 C   0  0  0  0  0  2  0  0  0  0  0  0
  133.9160  133.0610  148.1480 C   0  0  0  0  0  2  0  0  0  0  0  0
  135.1770  135.4130  150.9240 C   0  0  0  0  0  0  0  0  0  0  0  0
  135.1540  134.6060  149.7790 C   0  0  0  0  0  3  0  0  0  0  0  0
  133.9960  133.8850  149.4170 C   0  0  0  0  0  0  0  0  0  0  0  0
  132.8560  133.9990  150.2250 C   0  0  0  0  0  3  0  0  0  0  0  0
  132.8660  134.7990  151.3670 C   0  0  0  0  0  3  0  0  0  0  0  0
  134.0200  135.5010  151.7090 C   0  0  0  0  0  0  0  0  0  0  0  0
  137.2960  136.3820  150.4170 C   0  0  0  0  0  1  0  0  0  0  0  0
  136.2490  136.1540  151.3480 O   0  0  0  0  0  0  0  0  0  0  0  0
  134.0230  136.2960  152.8250 O   0  0  0  0  0  0  0  0  0  0  0  0
  134.6760  136.9600  152.9260 H   0  0  0  0  0  0  0  0  0  0  0  0
  1 15  1  0  0  0  0
  2  1  1  0  0  0  0
  3  2  2  0  0  0  0
  4  5  1  0  0  0  0
  4  2  1  0  0  0  0
  5  6  2  0  0  0  0
  7  6  1  0  0  0  0
  8  7  2  0  0  0  0
  9  8  1  0  0  0  0
  9  5  1  0  0  0  0
 10  1  1  0  0  0  0
 11  4  1  0  0  0  0
 12  8  1  0  0  0  0
 12 13  1  0  0  0  0
 14 12  1  0  0  0  0
 14 13  1  0  0  0  0
 15 18  1  0  0  0  0
 16 23  1  0  0  0  0
 16 21  1  0  0  0  0
 17 16  2  0  0  0  0
 18 17  1  0  0  0  0
 18 19  2  0  0  0  0
 19 20  1  0  0  0  0
 20 21  2  0  0  0  0
 21 24  1  0  0  0  0
 22 23  1  0  0  0  0
 24 25  1  0  0  0  0
M  END
>  <MODEL>
9

>  <REMARK>
 VINA RESULT:    -6.604      5.743      8.495
 INTER + INTRA:          -8.654
 INTER:                  -8.191
 INTRA:                  -0.462
 UNBOUND:                -0.312
  Name = CHEMBL3456995
  6 active torsions:
  status: ('A' for Active; 'I' for Inactive)
    1  A    between atoms: C_1  and  O_2
    2  A    between atoms: O_2  and  C_3
    3  A    between atoms: C_5  and  C_6
    4  A    between atoms: C_6  and  N_7
    5  A    between atoms: C_14  and  C_15
    6  A    between atoms: C_21  and  O_22
                            x       y       z     vdW  Elec       q    Type
                         _______ _______ _______ _____ _____    ______ ____

>  <TORSDO>
F 5

>  <SCORE>
-6.604

>  <RMSD_LB>
5.743

>  <RMSD_UB>
8.495

$$$$
