CHEMBL2442091
 OpenBabel10162523333D

 25 26  0  0  0  0  0  0  0  0999 V2000
  134.9300  134.8510  153.8300 N   0  0  0  0  0  0  0  0  0  0  0  0
  134.8670  134.6380  155.1910 C   0  0  0  0  0  0  0  0  0  0  0  0
  134.2680  133.7020  155.7040 O   0  0  0  0  0  0  0  0  0  0  0  0
  135.4090  135.6430  153.4920 H   0  0  0  0  0  0  0  0  0  0  0  0
  135.6170  135.6090  156.0420 C   0  0  0  0  0  0  0  0  0  0  0  0
  135.8580  135.3010  157.3850 C   0  0  0  0  0  3  0  0  0  0  0  0
  136.5750  136.1890  158.1980 C   0  0  0  0  0  3  0  0  0  0  0  0
  137.0620  137.3990  157.6850 C   0  0  0  0  0  0  0  0  0  0  0  0
  136.8150  137.7070  156.3340 C   0  0  0  0  0  0  0  0  0  0  0  0
  136.0730  136.8260  155.5350 C   0  0  0  0  0  3  0  0  0  0  0  0
  137.7390  138.3260  158.4290 O   0  0  0  0  0  0  0  0  0  0  0  0
  137.8710  138.1110  159.8270 C   0  0  0  0  0  1  0  0  0  0  0  0
  137.1810  138.8490  155.6660 O   0  0  0  0  0  0  0  0  0  0  0  0
  138.1690  138.7020  154.6530 C   0  0  0  0  0  1  0  0  0  0  0  0
  134.3120  133.9470  152.8870 C   0  0  0  0  0  2  0  0  0  0  0  0
  136.0350  134.4490  148.9320 C   0  0  0  0  0  0  0  0  0  0  0  0
  136.6720  134.9580  150.0730 C   0  0  0  0  0  3  0  0  0  0  0  0
  136.1180  134.7880  151.3460 C   0  0  0  0  0  3  0  0  0  0  0  0
  134.8990  134.1270  151.5100 C   0  0  0  0  0  0  0  0  0  0  0  0
  134.2570  133.6240  150.3710 C   0  0  0  0  0  3  0  0  0  0  0  0
  134.8130  133.7730  149.0870 C   0  0  0  0  0  0  0  0  0  0  0  0
  137.3400  133.6220  147.1230 C   0  0  0  0  0  1  0  0  0  0  0  0
  136.5210  134.6530  147.6670 O   0  0  0  0  0  0  0  0  0  0  0  0
  134.0200  133.2500  148.0960 O   0  0  0  0  0  0  0  0  0  0  0  0
  132.6610  133.6690  148.0670 C   0  0  0  0  0  1  0  0  0  0  0  0
  1  2  1  0  0  0  0
  2  3  2  0  0  0  0
  2  5  1  0  0  0  0
  4  1  1  0  0  0  0
  5  6  1  0  0  0  0
  6  7  2  0  0  0  0
  8  7  1  0  0  0  0
  8 11  1  0  0  0  0
  9  8  2  0  0  0  0
 10  5  2  0  0  0  0
 10  9  1  0  0  0  0
 11 12  1  0  0  0  0
 13  9  1  0  0  0  0
 14 13  1  0  0  0  0
 15  1  1  0  0  0  0
 16 21  2  0  0  0  0
 16 17  1  0  0  0  0
 17 18  2  0  0  0  0
 18 19  1  0  0  0  0
 19 15  1  0  0  0  0
 20 19  2  0  0  0  0
 21 20  1  0  0  0  0
 22 23  1  0  0  0  0
 23 16  1  0  0  0  0
 24 21  1  0  0  0  0
 25 24  1  0  0  0  0
M  END
>  <MODEL>
1

>  <REMARK>
 VINA RESULT:    -7.417      0.000      0.000
 INTER + INTRA:         -11.163
 INTER:                 -10.514
 INTRA:                  -0.649
 UNBOUND:                -0.711
  Name = CHEMBL2442091
  11 active torsions:
  status: ('A' for Active; 'I' for Inactive)
    1  A    between atoms: C_1  and  O_2
    2  A    between atoms: O_2  and  C_3
    3  A    between atoms: C_6  and  C_7
    4  A    between atoms: C_7  and  N_8
    5  A    between atoms: C_9  and  C_11
    6  A    between atoms: C_14  and  O_15
    7  A    between atoms: O_15  and  C_16
    8  A    between atoms: C_17  and  O_18
    9  A    between atoms: O_18  and  C_19
   10  A    between atoms: C_22  and  O_23
   11  A    between atoms: O_23  and  C_24
                            x       y       z     vdW  Elec       q    Type
                         _______ _______ _______ _____ _____    ______ ____

>  <TORSDO>
F 7

>  <SCORE>
-7.417

>  <RMSD_LB>
0.000

>  <RMSD_UB>
0.000

$$$$
CHEMBL2442091
 OpenBabel10162523333D

 25 26  0  0  0  0  0  0  0  0999 V2000
  135.4130  134.9220  153.0180 N   0  0  0  0  0  0  0  0  0  0  0  0
  135.2260  135.9350  153.9350 C   0  0  0  0  0  0  0  0  0  0  0  0
  134.1440  136.1980  154.4440 O   0  0  0  0  0  0  0  0  0  0  0  0
  136.3080  134.7880  152.6310 H   0  0  0  0  0  0  0  0  0  0  0  0
  136.4470  136.7010  154.3240 C   0  0  0  0  0  0  0  0  0  0  0  0
  137.3890  137.0320  153.3450 C   0  0  0  0  0  3  0  0  0  0  0  0
  138.5350  137.7660  153.6830 C   0  0  0  0  0  3  0  0  0  0  0  0
  138.7590  138.1790  155.0030 C   0  0  0  0  0  0  0  0  0  0  0  0
  137.8110  137.8410  155.9860 C   0  0  0  0  0  0  0  0  0  0  0  0
  136.6820  137.0830  155.6450 C   0  0  0  0  0  3  0  0  0  0  0  0
  139.8700  138.8680  155.4090 O   0  0  0  0  0  0  0  0  0  0  0  0
  141.1110  138.1790  155.4740 C   0  0  0  0  0  1  0  0  0  0  0  0
  137.8730  138.1270  157.3270 O   0  0  0  0  0  0  0  0  0  0  0  0
  136.7070  137.8420  158.0920 C   0  0  0  0  0  1  0  0  0  0  0  0
  134.3320  134.0550  152.6090 C   0  0  0  0  0  2  0  0  0  0  0  0
  133.6800  134.2610  148.3200 C   0  0  0  0  0  0  0  0  0  0  0  0
  133.7250  133.0300  148.9910 C   0  0  0  0  0  3  0  0  0  0  0  0
  133.9280  132.9680  150.3730 C   0  0  0  0  0  3  0  0  0  0  0  0
  134.1170  134.1330  151.1190 C   0  0  0  0  0  0  0  0  0  0  0  0
  134.0800  135.3640  150.4500 C   0  0  0  0  0  3  0  0  0  0  0  0
  133.8600  135.4400  149.0620 C   0  0  0  0  0  0  0  0  0  0  0  0
  134.6550  133.9180  146.1780 C   0  0  0  0  0  1  0  0  0  0  0  0
  133.5460  134.3510  146.9590 O   0  0  0  0  0  0  0  0  0  0  0  0
  133.8980  136.7270  148.5850 O   0  0  0  0  0  0  0  0  0  0  0  0
  135.1710  137.2420  148.2160 C   0  0  0  0  0  1  0  0  0  0  0  0
  1  2  1  0  0  0  0
  2  5  1  0  0  0  0
  2  3  2  0  0  0  0
  4  1  1  0  0  0  0
  5 10  1  0  0  0  0
  6  7  1  0  0  0  0
  6  5  2  0  0  0  0
  7  8  2  0  0  0  0
  8 11  1  0  0  0  0
  8  9  1  0  0  0  0
  9 13  1  0  0  0  0
 10  9  2  0  0  0  0
 11 12  1  0  0  0  0
 13 14  1  0  0  0  0
 15  1  1  0  0  0  0
 16 17  2  0  0  0  0
 16 21  1  0  0  0  0
 17 18  1  0  0  0  0
 18 19  2  0  0  0  0
 19 15  1  0  0  0  0
 20 19  1  0  0  0  0
 21 20  2  0  0  0  0
 22 23  1  0  0  0  0
 23 16  1  0  0  0  0
 24 21  1  0  0  0  0
 25 24  1  0  0  0  0
M  END
>  <MODEL>
2

>  <REMARK>
 VINA RESULT:    -6.931      1.877      3.060
 INTER + INTRA:         -10.478
 INTER:                  -9.741
 INTRA:                  -0.737
 UNBOUND:                -0.711
  Name = CHEMBL2442091
  11 active torsions:
  status: ('A' for Active; 'I' for Inactive)
    1  A    between atoms: C_1  and  O_2
    2  A    between atoms: O_2  and  C_3
    3  A    between atoms: C_6  and  C_7
    4  A    between atoms: C_7  and  N_8
    5  A    between atoms: C_9  and  C_11
    6  A    between atoms: C_14  and  O_15
    7  A    between atoms: O_15  and  C_16
    8  A    between atoms: C_17  and  O_18
    9  A    between atoms: O_18  and  C_19
   10  A    between atoms: C_22  and  O_23
   11  A    between atoms: O_23  and  C_24
                            x       y       z     vdW  Elec       q    Type
                         _______ _______ _______ _____ _____    ______ ____

>  <TORSDO>
F 7

>  <SCORE>
-6.931

>  <RMSD_LB>
1.877

>  <RMSD_UB>
3.060

$$$$
CHEMBL2442091
 OpenBabel10162523333D

 25 26  0  0  0  0  0  0  0  0999 V2000
  134.7620  134.8640  153.2710 N   0  0  0  0  0  0  0  0  0  0  0  0
  134.9670  134.8650  154.6340 C   0  0  0  0  0  0  0  0  0  0  0  0
  134.3130  134.1920  155.4190 O   0  0  0  0  0  0  0  0  0  0  0  0
  135.3110  135.4540  152.7040 H   0  0  0  0  0  0  0  0  0  0  0  0
  136.0840  135.7240  155.1280 C   0  0  0  0  0  0  0  0  0  0  0  0
  136.4630  135.6520  156.4720 C   0  0  0  0  0  3  0  0  0  0  0  0
  137.5200  136.4360  156.9540 C   0  0  0  0  0  3  0  0  0  0  0  0
  138.2150  137.3060  156.1030 C   0  0  0  0  0  0  0  0  0  0  0  0
  137.8290  137.3790  154.7510 C   0  0  0  0  0  0  0  0  0  0  0  0
  136.7530  136.6120  154.2840 C   0  0  0  0  0  3  0  0  0  0  0  0
  139.2320  138.1240  156.5120 O   0  0  0  0  0  0  0  0  0  0  0  0
  140.5700  137.6600  156.3880 C   0  0  0  0  0  1  0  0  0  0  0  0
  138.3650  138.1900  153.7810 O   0  0  0  0  0  0  0  0  0  0  0  0
  138.3680  137.6750  152.4550 C   0  0  0  0  0  1  0  0  0  0  0  0
  133.7650  134.0220  152.6510 C   0  0  0  0  0  2  0  0  0  0  0  0
  133.7140  134.5820  148.3440 C   0  0  0  0  0  0  0  0  0  0  0  0
  132.7380  133.8070  148.9890 C   0  0  0  0  0  3  0  0  0  0  0  0
  132.7540  133.6350  150.3770 C   0  0  0  0  0  3  0  0  0  0  0  0
  133.7600  134.2110  151.1550 C   0  0  0  0  0  0  0  0  0  0  0  0
  134.7400  134.9800  150.5130 C   0  0  0  0  0  3  0  0  0  0  0  0
  134.7250  135.1740  149.1190 C   0  0  0  0  0  0  0  0  0  0  0  0
  134.4540  133.7000  146.2620 C   0  0  0  0  0  1  0  0  0  0  0  0
  133.7620  134.7170  146.9810 O   0  0  0  0  0  0  0  0  0  0  0  0
  135.7870  135.9200  148.6720 O   0  0  0  0  0  0  0  0  0  0  0  0
  135.5540  137.3040  148.4430 C   0  0  0  0  0  1  0  0  0  0  0  0
  1  2  1  0  0  0  0
  2  5  1  0  0  0  0
  2  3  2  0  0  0  0
  4  1  1  0  0  0  0
  5  6  1  0  0  0  0
  6  7  2  0  0  0  0
  8 11  1  0  0  0  0
  8  7  1  0  0  0  0
  9  8  2  0  0  0  0
 10  9  1  0  0  0  0
 10  5  2  0  0  0  0
 12 11  1  0  0  0  0
 13  9  1  0  0  0  0
 14 13  1  0  0  0  0
 15  1  1  0  0  0  0
 16 17  2  0  0  0  0
 16 21  1  0  0  0  0
 17 18  1  0  0  0  0
 18 19  2  0  0  0  0
 19 15  1  0  0  0  0
 20 19  1  0  0  0  0
 21 20  2  0  0  0  0
 22 23  1  0  0  0  0
 23 16  1  0  0  0  0
 24 21  1  0  0  0  0
 25 24  1  0  0  0  0
M  END
>  <MODEL>
3

>  <REMARK>
 VINA RESULT:    -6.806      1.703      2.455
 INTER + INTRA:         -10.302
 INTER:                  -9.598
 INTRA:                  -0.703
 UNBOUND:                -0.711
  Name = CHEMBL2442091
  11 active torsions:
  status: ('A' for Active; 'I' for Inactive)
    1  A    between atoms: C_1  and  O_2
    2  A    between atoms: O_2  and  C_3
    3  A    between atoms: C_6  and  C_7
    4  A    between atoms: C_7  and  N_8
    5  A    between atoms: C_9  and  C_11
    6  A    between atoms: C_14  and  O_15
    7  A    between atoms: O_15  and  C_16
    8  A    between atoms: C_17  and  O_18
    9  A    between atoms: O_18  and  C_19
   10  A    between atoms: C_22  and  O_23
   11  A    between atoms: O_23  and  C_24
                            x       y       z     vdW  Elec       q    Type
                         _______ _______ _______ _____ _____    ______ ____

>  <TORSDO>
F 7

>  <SCORE>
-6.806

>  <RMSD_LB>
1.703

>  <RMSD_UB>
2.455

$$$$
CHEMBL2442091
 OpenBabel10162523333D

 25 26  0  0  0  0  0  0  0  0999 V2000
  135.4290  135.0310  154.4110 N   0  0  0  0  0  0  0  0  0  0  0  0
  134.8590  134.3050  153.3870 C   0  0  0  0  0  0  0  0  0  0  0  0
  134.0290  133.4230  153.5610 O   0  0  0  0  0  0  0  0  0  0  0  0
  136.1130  135.7070  154.1950 H   0  0  0  0  0  0  0  0  0  0  0  0
  135.2850  134.6760  152.0050 C   0  0  0  0  0  0  0  0  0  0  0  0
  136.1320  135.7730  151.8190 C   0  0  0  0  0  3  0  0  0  0  0  0
  136.5580  136.1300  150.5330 C   0  0  0  0  0  3  0  0  0  0  0  0
  136.1450  135.3990  149.4110 C   0  0  0  0  0  0  0  0  0  0  0  0
  135.2890  134.2980  149.6010 C   0  0  0  0  0  0  0  0  0  0  0  0
  134.8450  133.9650  150.8880 C   0  0  0  0  0  3  0  0  0  0  0  0
  136.4950  135.7110  148.1250 O   0  0  0  0  0  0  0  0  0  0  0  0
  137.8660  135.9380  147.8290 C   0  0  0  0  0  1  0  0  0  0  0  0
  134.7570  133.4880  148.6290 O   0  0  0  0  0  0  0  0  0  0  0  0
  133.4440  133.8080  148.1840 C   0  0  0  0  0  1  0  0  0  0  0  0
  135.0540  134.8270  155.7910 C   0  0  0  0  0  2  0  0  0  0  0  0
  137.2890  137.4670  158.4180 C   0  0  0  0  0  0  0  0  0  0  0  0
  136.5250  136.4070  158.9290 C   0  0  0  0  0  3  0  0  0  0  0  0
  135.8120  135.5550  158.0800 C   0  0  0  0  0  3  0  0  0  0  0  0
  135.8230  135.7530  156.6980 C   0  0  0  0  0  0  0  0  0  0  0  0
  136.5800  136.8160  156.1840 C   0  0  0  0  0  3  0  0  0  0  0  0
  137.3150  137.6700  157.0280 C   0  0  0  0  0  0  0  0  0  0  0  0
  137.3480  138.6350  160.4890 C   0  0  0  0  0  1  0  0  0  0  0  0
  137.9470  138.3560  159.2270 O   0  0  0  0  0  0  0  0  0  0  0  0
  137.9580  138.6720  156.3450 O   0  0  0  0  0  0  0  0  0  0  0  0
  138.9330  138.2790  155.3870 C   0  0  0  0  0  1  0  0  0  0  0  0
  1 15  1  0  0  0  0
  2  3  2  0  0  0  0
  2  1  1  0  0  0  0
  4  1  1  0  0  0  0
  5  2  1  0  0  0  0
  6  5  1  0  0  0  0
  7  6  2  0  0  0  0
  8  9  2  0  0  0  0
  8  7  1  0  0  0  0
  9 10  1  0  0  0  0
 10  5  2  0  0  0  0
 11  8  1  0  0  0  0
 12 11  1  0  0  0  0
 13  9  1  0  0  0  0
 14 13  1  0  0  0  0
 15 19  1  0  0  0  0
 16 17  1  0  0  0  0
 16 23  1  0  0  0  0
 18 17  2  0  0  0  0
 19 18  1  0  0  0  0
 20 19  2  0  0  0  0
 20 21  1  0  0  0  0
 21 16  2  0  0  0  0
 23 22  1  0  0  0  0
 24 21  1  0  0  0  0
 25 24  1  0  0  0  0
M  END
>  <MODEL>
4

>  <REMARK>
 VINA RESULT:    -6.674      1.091      8.409
 INTER + INTRA:         -10.115
 INTER:                  -9.450
 INTRA:                  -0.665
 UNBOUND:                -0.711
  Name = CHEMBL2442091
  11 active torsions:
  status: ('A' for Active; 'I' for Inactive)
    1  A    between atoms: C_1  and  O_2
    2  A    between atoms: O_2  and  C_3
    3  A    between atoms: C_6  and  C_7
    4  A    between atoms: C_7  and  N_8
    5  A    between atoms: C_9  and  C_11
    6  A    between atoms: C_14  and  O_15
    7  A    between atoms: O_15  and  C_16
    8  A    between atoms: C_17  and  O_18
    9  A    between atoms: O_18  and  C_19
   10  A    between atoms: C_22  and  O_23
   11  A    between atoms: O_23  and  C_24
                            x       y       z     vdW  Elec       q    Type
                         _______ _______ _______ _____ _____    ______ ____

>  <TORSDO>
F 7

>  <SCORE>
-6.674

>  <RMSD_LB>
1.091

>  <RMSD_UB>
8.409

$$$$
CHEMBL2442091
 OpenBabel10162523333D

 25 26  0  0  0  0  0  0  0  0999 V2000
  139.7880  137.6190  155.4100 N   0  0  0  0  0  0  0  0  0  0  0  0
  140.1440  138.6360  154.5510 C   0  0  0  0  0  0  0  0  0  0  0  0
  139.5850  139.7240  154.5180 O   0  0  0  0  0  0  0  0  0  0  0  0
  140.2670  136.7600  155.3590 H   0  0  0  0  0  0  0  0  0  0  0  0
  141.3060  138.3590  153.6540 C   0  0  0  0  0  0  0  0  0  0  0  0
  141.1050  137.6280  152.4780 C   0  0  0  0  0  3  0  0  0  0  0  0
  142.1770  137.3710  151.6120 C   0  0  0  0  0  3  0  0  0  0  0  0
  143.4660  137.8370  151.9060 C   0  0  0  0  0  0  0  0  0  0  0  0
  143.6640  138.5690  153.0920 C   0  0  0  0  0  0  0  0  0  0  0  0
  142.5930  138.7980  153.9660 C   0  0  0  0  0  3  0  0  0  0  0  0
  144.5620  137.5950  151.1240 O   0  0  0  0  0  0  0  0  0  0  0  0
  144.6540  136.3470  150.4510 C   0  0  0  0  0  1  0  0  0  0  0  0
  144.8510  139.0770  153.5610 O   0  0  0  0  0  0  0  0  0  0  0  0
  144.8850  139.4410  154.9360 C   0  0  0  0  0  1  0  0  0  0  0  0
  138.7310  137.7780  156.3820 C   0  0  0  0  0  2  0  0  0  0  0  0
  135.3590  135.2330  155.3720 C   0  0  0  0  0  0  0  0  0  0  0  0
  136.1010  135.8860  154.3780 C   0  0  0  0  0  3  0  0  0  0  0  0
  137.1910  136.6990  154.7060 C   0  0  0  0  0  3  0  0  0  0  0  0
  137.5530  136.9020  156.0400 C   0  0  0  0  0  0  0  0  0  0  0  0
  136.8080  136.2560  157.0360 C   0  0  0  0  0  3  0  0  0  0  0  0
  135.7200  135.4220  156.7170 C   0  0  0  0  0  0  0  0  0  0  0  0
  134.2790  133.7340  153.8730 C   0  0  0  0  0  1  0  0  0  0  0  0
  134.2500  134.4810  155.0860 O   0  0  0  0  0  0  0  0  0  0  0  0
  135.0930  134.9130  157.8270 O   0  0  0  0  0  0  0  0  0  0  0  0
  135.7910  135.0050  159.0630 C   0  0  0  0  0  1  0  0  0  0  0  0
  1 15  1  0  0  0  0
  2  1  1  0  0  0  0
  3  2  2  0  0  0  0
  4  1  1  0  0  0  0
  5 10  1  0  0  0  0
  5  2  1  0  0  0  0
  6  5  2  0  0  0  0
  7  8  2  0  0  0  0
  7  6  1  0  0  0  0
  8  9  1  0  0  0  0
  9 13  1  0  0  0  0
  9 10  2  0  0  0  0
 11  8  1  0  0  0  0
 12 11  1  0  0  0  0
 13 14  1  0  0  0  0
 16 21  1  0  0  0  0
 17 18  1  0  0  0  0
 17 16  2  0  0  0  0
 18 19  2  0  0  0  0
 19 15  1  0  0  0  0
 19 20  1  0  0  0  0
 21 20  2  0  0  0  0
 21 24  1  0  0  0  0
 22 23  1  0  0  0  0
 23 16  1  0  0  0  0
 24 25  1  0  0  0  0
M  END
>  <MODEL>
5

>  <REMARK>
 VINA RESULT:    -6.659      4.384      7.844
 INTER + INTRA:         -10.094
 INTER:                  -9.504
 INTRA:                  -0.590
 UNBOUND:                -0.711
  Name = CHEMBL2442091
  11 active torsions:
  status: ('A' for Active; 'I' for Inactive)
    1  A    between atoms: C_1  and  O_2
    2  A    between atoms: O_2  and  C_3
    3  A    between atoms: C_6  and  C_7
    4  A    between atoms: C_7  and  N_8
    5  A    between atoms: C_9  and  C_11
    6  A    between atoms: C_14  and  O_15
    7  A    between atoms: O_15  and  C_16
    8  A    between atoms: C_17  and  O_18
    9  A    between atoms: O_18  and  C_19
   10  A    between atoms: C_22  and  O_23
   11  A    between atoms: O_23  and  C_24
                            x       y       z     vdW  Elec       q    Type
                         _______ _______ _______ _____ _____    ______ ____

>  <TORSDO>
F 7

>  <SCORE>
-6.659

>  <RMSD_LB>
4.384

>  <RMSD_UB>
7.844

$$$$
CHEMBL2442091
 OpenBabel10162523333D

 25 26  0  0  0  0  0  0  0  0999 V2000
  143.2680  139.0550  153.9820 N   0  0  0  0  0  0  0  0  0  0  0  0
  141.9490  138.8840  154.3420 C   0  0  0  0  0  0  0  0  0  0  0  0
  141.5050  139.1700  155.4460 O   0  0  0  0  0  0  0  0  0  0  0  0
  143.5590  138.7750  153.0830 H   0  0  0  0  0  0  0  0  0  0  0  0
  141.0440  138.3490  153.2820 C   0  0  0  0  0  0  0  0  0  0  0  0
  139.6590  138.4580  153.4430 C   0  0  0  0  0  3  0  0  0  0  0  0
  138.7900  137.9790  152.4520 C   0  0  0  0  0  3  0  0  0  0  0  0
  139.2900  137.3830  151.2870 C   0  0  0  0  0  0  0  0  0  0  0  0
  140.6830  137.2720  151.1290 C   0  0  0  0  0  0  0  0  0  0  0  0
  141.5440  137.7280  152.1370 C   0  0  0  0  0  3  0  0  0  0  0  0
  138.5000  136.8650  150.2960 O   0  0  0  0  0  0  0  0  0  0  0  0
  137.1310  136.6130  150.5800 C   0  0  0  0  0  1  0  0  0  0  0  0
  141.3530  136.6950  150.0790 O   0  0  0  0  0  0  0  0  0  0  0  0
  142.7740  136.7470  150.1270 C   0  0  0  0  0  1  0  0  0  0  0  0
  144.2370  139.6320  154.8850 C   0  0  0  0  0  2  0  0  0  0  0  0
  148.1690  137.9320  154.1650 C   0  0  0  0  0  0  0  0  0  0  0  0
  147.0270  137.1200  154.2380 C   0  0  0  0  0  3  0  0  0  0  0  0
  145.7610  137.6720  154.4630 C   0  0  0  0  0  3  0  0  0  0  0  0
  145.6060  139.0470  154.6470 C   0  0  0  0  0  0  0  0  0  0  0  0
  146.7460  139.8600  154.5810 C   0  0  0  0  0  3  0  0  0  0  0  0
  148.0220  139.3180  154.3380 C   0  0  0  0  0  0  0  0  0  0  0  0
  149.8470  137.1470  152.6730 C   0  0  0  0  0  1  0  0  0  0  0  0
  149.4280  137.4150  154.0080 O   0  0  0  0  0  0  0  0  0  0  0  0
  149.0160  140.2650  154.3500 O   0  0  0  0  0  0  0  0  0  0  0  0
  148.6110  141.6280  154.3150 C   0  0  0  0  0  1  0  0  0  0  0  0
  1  2  1  0  0  0  0
  1 15  1  0  0  0  0
  2  3  2  0  0  0  0
  4  1  1  0  0  0  0
  5  6  1  0  0  0  0
  5  2  1  0  0  0  0
  7  6  2  0  0  0  0
  8  7  1  0  0  0  0
  9  8  2  0  0  0  0
  9 10  1  0  0  0  0
 10  5  2  0  0  0  0
 11 12  1  0  0  0  0
 11  8  1  0  0  0  0
 13 14  1  0  0  0  0
 13  9  1  0  0  0  0
 16 17  2  0  0  0  0
 16 21  1  0  0  0  0
 17 18  1  0  0  0  0
 18 19  2  0  0  0  0
 19 15  1  0  0  0  0
 20 19  1  0  0  0  0
 21 24  1  0  0  0  0
 21 20  2  0  0  0  0
 22 23  1  0  0  0  0
 23 16  1  0  0  0  0
 25 24  1  0  0  0  0
M  END
>  <MODEL>
6

>  <REMARK>
 VINA RESULT:    -6.635      7.505     11.163
 INTER + INTRA:         -10.061
 INTER:                  -9.405
 INTRA:                  -0.656
 UNBOUND:                -0.711
  Name = CHEMBL2442091
  11 active torsions:
  status: ('A' for Active; 'I' for Inactive)
    1  A    between atoms: C_1  and  O_2
    2  A    between atoms: O_2  and  C_3
    3  A    between atoms: C_6  and  C_7
    4  A    between atoms: C_7  and  N_8
    5  A    between atoms: C_9  and  C_11
    6  A    between atoms: C_14  and  O_15
    7  A    between atoms: O_15  and  C_16
    8  A    between atoms: C_17  and  O_18
    9  A    between atoms: O_18  and  C_19
   10  A    between atoms: C_22  and  O_23
   11  A    between atoms: O_23  and  C_24
                            x       y       z     vdW  Elec       q    Type
                         _______ _______ _______ _____ _____    ______ ____

>  <TORSDO>
F 7

>  <SCORE>
-6.635

>  <RMSD_LB>
7.505

>  <RMSD_UB>
11.163

$$$$
CHEMBL2442091
 OpenBabel10162523333D

 25 26  0  0  0  0  0  0  0  0999 V2000
  139.0630  137.8070  153.1170 N   0  0  0  0  0  0  0  0  0  0  0  0
  138.5910  138.4320  154.2510 C   0  0  0  0  0  0  0  0  0  0  0  0
  138.7910  139.6110  154.5090 O   0  0  0  0  0  0  0  0  0  0  0  0
  138.8860  136.8460  152.9910 H   0  0  0  0  0  0  0  0  0  0  0  0
  137.7660  137.5900  155.1680 C   0  0  0  0  0  0  0  0  0  0  0  0
  136.9510  136.5880  154.6330 C   0  0  0  0  0  3  0  0  0  0  0  0
  136.1820  135.7740  155.4750 C   0  0  0  0  0  3  0  0  0  0  0  0
  136.2120  135.9480  156.8650 C   0  0  0  0  0  0  0  0  0  0  0  0
  137.0310  136.9600  157.4010 C   0  0  0  0  0  0  0  0  0  0  0  0
  137.7760  137.7870  156.5500 C   0  0  0  0  0  3  0  0  0  0  0  0
  135.4630  135.2130  157.7430 O   0  0  0  0  0  0  0  0  0  0  0  0
  134.3070  134.5440  157.2570 C   0  0  0  0  0  1  0  0  0  0  0  0
  137.1660  137.2990  158.7250 O   0  0  0  0  0  0  0  0  0  0  0  0
  136.2210  138.2280  159.2410 C   0  0  0  0  0  1  0  0  0  0  0  0
  139.8110  138.5210  152.1080 C   0  0  0  0  0  2  0  0  0  0  0  0
  143.9760  137.2880  152.0660 C   0  0  0  0  0  0  0  0  0  0  0  0
  143.1050  136.9460  151.0210 C   0  0  0  0  0  3  0  0  0  0  0  0
  141.7670  137.3510  151.0350 C   0  0  0  0  0  3  0  0  0  0  0  0
  141.2550  138.0870  152.1060 C   0  0  0  0  0  0  0  0  0  0  0  0
  142.1210  138.4240  153.1550 C   0  0  0  0  0  3  0  0  0  0  0  0
  143.4740  138.0370  153.1440 C   0  0  0  0  0  0  0  0  0  0  0  0
  145.7030  136.0060  151.0500 C   0  0  0  0  0  1  0  0  0  0  0  0
  145.2750  136.8540  152.1120 O   0  0  0  0  0  0  0  0  0  0  0  0
  144.1500  138.4260  154.2740 O   0  0  0  0  0  0  0  0  0  0  0  0
  144.8230  139.6770  154.2270 C   0  0  0  0  0  1  0  0  0  0  0  0
  1  2  1  0  0  0  0
  2  3  2  0  0  0  0
  2  5  1  0  0  0  0
  4  1  1  0  0  0  0
  5 10  1  0  0  0  0
  6  5  2  0  0  0  0
  6  7  1  0  0  0  0
  7  8  2  0  0  0  0
  8  9  1  0  0  0  0
  8 11  1  0  0  0  0
  9 13  1  0  0  0  0
 10  9  2  0  0  0  0
 12 11  1  0  0  0  0
 13 14  1  0  0  0  0
 15  1  1  0  0  0  0
 16 23  1  0  0  0  0
 16 21  1  0  0  0  0
 17 18  1  0  0  0  0
 17 16  2  0  0  0  0
 18 19  2  0  0  0  0
 19 15  1  0  0  0  0
 19 20  1  0  0  0  0
 21 20  2  0  0  0  0
 21 24  1  0  0  0  0
 22 23  1  0  0  0  0
 25 24  1  0  0  0  0
M  END
>  <MODEL>
7

>  <REMARK>
 VINA RESULT:    -6.565      4.715      7.338
 INTER + INTRA:          -9.962
 INTER:                  -9.309
 INTRA:                  -0.653
 UNBOUND:                -0.711
  Name = CHEMBL2442091
  11 active torsions:
  status: ('A' for Active; 'I' for Inactive)
    1  A    between atoms: C_1  and  O_2
    2  A    between atoms: O_2  and  C_3
    3  A    between atoms: C_6  and  C_7
    4  A    between atoms: C_7  and  N_8
    5  A    between atoms: C_9  and  C_11
    6  A    between atoms: C_14  and  O_15
    7  A    between atoms: O_15  and  C_16
    8  A    between atoms: C_17  and  O_18
    9  A    between atoms: O_18  and  C_19
   10  A    between atoms: C_22  and  O_23
   11  A    between atoms: O_23  and  C_24
                            x       y       z     vdW  Elec       q    Type
                         _______ _______ _______ _____ _____    ______ ____

>  <TORSDO>
F 7

>  <SCORE>
-6.565

>  <RMSD_LB>
4.715

>  <RMSD_UB>
7.338

$$$$
CHEMBL2442091
 OpenBabel10162523333D

 25 26  0  0  0  0  0  0  0  0999 V2000
  138.5310  138.0400  153.0450 N   0  0  0  0  0  0  0  0  0  0  0  0
  138.6270  138.3400  154.3870 C   0  0  0  0  0  0  0  0  0  0  0  0
  139.3090  139.2540  154.8310 O   0  0  0  0  0  0  0  0  0  0  0  0
  137.9830  137.2700  152.7650 H   0  0  0  0  0  0  0  0  0  0  0  0
  137.8080  137.4960  155.3080 C   0  0  0  0  0  0  0  0  0  0  0  0
  137.9810  137.6210  156.6900 C   0  0  0  0  0  3  0  0  0  0  0  0
  137.2100  136.8530  157.5730 C   0  0  0  0  0  3  0  0  0  0  0  0
  136.2570  135.9460  157.0920 C   0  0  0  0  0  0  0  0  0  0  0  0
  136.0880  135.8190  155.7000 C   0  0  0  0  0  0  0  0  0  0  0  0
  136.8810  136.5720  154.8230 C   0  0  0  0  0  3  0  0  0  0  0  0
  135.4950  135.1410  157.8950 O   0  0  0  0  0  0  0  0  0  0  0  0
  135.9730  134.8330  159.1970 C   0  0  0  0  0  1  0  0  0  0  0  0
  135.2330  134.9680  155.0460 O   0  0  0  0  0  0  0  0  0  0  0  0
  134.0200  135.5350  154.5620 C   0  0  0  0  0  1  0  0  0  0  0  0
  139.2110  138.8210  152.0380 C   0  0  0  0  0  2  0  0  0  0  0  0
  142.8410  136.8460  150.7000 C   0  0  0  0  0  0  0  0  0  0  0  0
  141.6160  136.6410  150.0460 C   0  0  0  0  0  3  0  0  0  0  0  0
  140.4510  137.2840  150.4750 C   0  0  0  0  0  3  0  0  0  0  0  0
  140.4720  138.1300  151.5860 C   0  0  0  0  0  0  0  0  0  0  0  0
  141.6930  138.3310  152.2460 C   0  0  0  0  0  3  0  0  0  0  0  0
  142.8750  137.7030  151.8130 C   0  0  0  0  0  0  0  0  0  0  0  0
  144.8210  136.8230  149.3830 C   0  0  0  0  0  1  0  0  0  0  0  0
  143.9840  136.1820  150.3420 O   0  0  0  0  0  0  0  0  0  0  0  0
  143.9560  137.9910  152.6080 O   0  0  0  0  0  0  0  0  0  0  0  0
  144.1980  137.1240  153.7090 C   0  0  0  0  0  1  0  0  0  0  0  0
  1  2  1  0  0  0  0
  2  3  2  0  0  0  0
  2  5  1  0  0  0  0
  4  1  1  0  0  0  0
  5  6  1  0  0  0  0
  6  7  2  0  0  0  0
  8  7  1  0  0  0  0
  8 11  1  0  0  0  0
  9  8  2  0  0  0  0
 10  5  2  0  0  0  0
 10  9  1  0  0  0  0
 11 12  1  0  0  0  0
 13  9  1  0  0  0  0
 14 13  1  0  0  0  0
 15  1  1  0  0  0  0
 16 21  1  0  0  0  0
 17 18  1  0  0  0  0
 17 16  2  0  0  0  0
 18 19  2  0  0  0  0
 19 15  1  0  0  0  0
 19 20  1  0  0  0  0
 21 20  2  0  0  0  0
 21 24  1  0  0  0  0
 22 23  1  0  0  0  0
 23 16  1  0  0  0  0
 24 25  1  0  0  0  0
M  END
>  <MODEL>
8

>  <REMARK>
 VINA RESULT:    -6.456      4.301      6.592
 INTER + INTRA:          -9.809
 INTER:                  -9.081
 INTRA:                  -0.728
 UNBOUND:                -0.711
  Name = CHEMBL2442091
  11 active torsions:
  status: ('A' for Active; 'I' for Inactive)
    1  A    between atoms: C_1  and  O_2
    2  A    between atoms: O_2  and  C_3
    3  A    between atoms: C_6  and  C_7
    4  A    between atoms: C_7  and  N_8
    5  A    between atoms: C_9  and  C_11
    6  A    between atoms: C_14  and  O_15
    7  A    between atoms: O_15  and  C_16
    8  A    between atoms: C_17  and  O_18
    9  A    between atoms: O_18  and  C_19
   10  A    between atoms: C_22  and  O_23
   11  A    between atoms: O_23  and  C_24
                            x       y       z     vdW  Elec       q    Type
                         _______ _______ _______ _____ _____    ______ ____

>  <TORSDO>
F 7

>  <SCORE>
-6.456

>  <RMSD_LB>
4.301

>  <RMSD_UB>
6.592

$$$$
CHEMBL2442091
 OpenBabel10162523333D

 25 26  0  0  0  0  0  0  0  0999 V2000
  134.7530  132.9770  147.3600 N   0  0  0  0  0  0  0  0  0  0  0  0
  135.6300  132.1310  146.7160 C   0  0  0  0  0  0  0  0  0  0  0  0
  135.8050  130.9630  147.0380 O   0  0  0  0  0  0  0  0  0  0  0  0
  134.6860  133.9140  147.0620 H   0  0  0  0  0  0  0  0  0  0  0  0
  136.3560  132.7070  145.5460 C   0  0  0  0  0  0  0  0  0  0  0  0
  136.1740  132.1420  144.2790 C   0  0  0  0  0  3  0  0  0  0  0  0
  136.8320  132.6770  143.1630 C   0  0  0  0  0  3  0  0  0  0  0  0
  137.6830  133.7820  143.2930 C   0  0  0  0  0  0  0  0  0  0  0  0
  137.8680  134.3460  144.5690 C   0  0  0  0  0  0  0  0  0  0  0  0
  137.2280  133.7880  145.6850 C   0  0  0  0  0  3  0  0  0  0  0  0
  138.3820  134.3340  142.2540 O   0  0  0  0  0  0  0  0  0  0  0  0
  137.6610  134.8100  141.1260 C   0  0  0  0  0  1  0  0  0  0  0  0
  138.6810  135.4020  144.8970 O   0  0  0  0  0  0  0  0  0  0  0  0
  138.1640  136.3320  145.8420 C   0  0  0  0  0  1  0  0  0  0  0  0
  133.9310  132.5300  148.4610 C   0  0  0  0  0  2  0  0  0  0  0  0
  134.0140  135.3680  151.7480 C   0  0  0  0  0  0  0  0  0  0  0  0
  132.8030  134.8500  151.2640 C   0  0  0  0  0  3  0  0  0  0  0  0
  132.7810  133.9300  150.2100 C   0  0  0  0  0  3  0  0  0  0  0  0
  133.9660  133.5240  149.5940 C   0  0  0  0  0  0  0  0  0  0  0  0
  135.1770  134.0460  150.0700 C   0  0  0  0  0  3  0  0  0  0  0  0
  135.2130  134.9580  151.1410 C   0  0  0  0  0  0  0  0  0  0  0  0
  134.0610  135.8410  154.0780 C   0  0  0  0  0  1  0  0  0  0  0  0
  134.0650  136.3160  152.7350 O   0  0  0  0  0  0  0  0  0  0  0  0
  136.4840  135.3850  151.4360 O   0  0  0  0  0  0  0  0  0  0  0  0
  136.9810  136.4950  150.6990 C   0  0  0  0  0  1  0  0  0  0  0  0
  1 15  1  0  0  0  0
  2  3  2  0  0  0  0
  2  1  1  0  0  0  0
  4  1  1  0  0  0  0
  5 10  1  0  0  0  0
  5  2  1  0  0  0  0
  6  5  2  0  0  0  0
  7  8  2  0  0  0  0
  7  6  1  0  0  0  0
  8  9  1  0  0  0  0
  9 13  1  0  0  0  0
  9 10  2  0  0  0  0
 11  8  1  0  0  0  0
 12 11  1  0  0  0  0
 13 14  1  0  0  0  0
 15 19  1  0  0  0  0
 16 23  1  0  0  0  0
 17 16  1  0  0  0  0
 18 17  2  0  0  0  0
 19 20  2  0  0  0  0
 19 18  1  0  0  0  0
 20 21  1  0  0  0  0
 21 24  1  0  0  0  0
 21 16  2  0  0  0  0
 23 22  1  0  0  0  0
 25 24  1  0  0  0  0
M  END
>  <MODEL>
9

>  <REMARK>
 VINA RESULT:    -6.292      3.793      9.809
 INTER + INTRA:          -9.577
 INTER:                  -8.866
 INTRA:                  -0.711
 UNBOUND:                -0.711
  Name = CHEMBL2442091
  11 active torsions:
  status: ('A' for Active; 'I' for Inactive)
    1  A    between atoms: C_1  and  O_2
    2  A    between atoms: O_2  and  C_3
    3  A    between atoms: C_6  and  C_7
    4  A    between atoms: C_7  and  N_8
    5  A    between atoms: C_9  and  C_11
    6  A    between atoms: C_14  and  O_15
    7  A    between atoms: O_15  and  C_16
    8  A    between atoms: C_17  and  O_18
    9  A    between atoms: O_18  and  C_19
   10  A    between atoms: C_22  and  O_23
   11  A    between atoms: O_23  and  C_24
                            x       y       z     vdW  Elec       q    Type
                         _______ _______ _______ _____ _____    ______ ____

>  <TORSDO>
F 7

>  <SCORE>
-6.292

>  <RMSD_LB>
3.793

>  <RMSD_UB>
9.809

$$$$
