CHEMBL3745730
 OpenBabel10162523383D

 21 21  0  0  0  0  0  0  0  0999 V2000
  134.7450  134.0440  152.4300 C   0  0  0  0  0  3  0  0  0  0  0  0
  133.6240  133.9760  151.6930 C   0  0  0  0  0  3  0  0  0  0  0  0
  133.5940  133.8340  150.2240 C   0  0  0  0  0  0  0  0  0  0  0  0
  134.0450  132.6430  149.6470 C   0  0  0  0  0  3  0  0  0  0  0  0
  133.9820  132.4540  148.2610 C   0  0  0  0  0  3  0  0  0  0  0  0
  133.4560  133.4500  147.4360 C   0  0  0  0  0  0  0  0  0  0  0  0
  132.9980  134.6490  147.9890 C   0  0  0  0  0  0  0  0  0  0  0  0
  133.0680  134.8240  149.3800 C   0  0  0  0  0  3  0  0  0  0  0  0
  133.4090  133.2140  146.0900 O   0  0  0  0  0  0  0  0  0  0  0  0
  133.7400  132.4090  145.7440 H   0  0  0  0  0  0  0  0  0  0  0  0
  132.4620  135.7300  147.3350 O   0  0  0  0  0  0  0  0  0  0  0  0
  133.3490  136.7650  146.9320 C   0  0  0  0  0  1  0  0  0  0  0  0
  134.6570  134.2120  153.9100 C   0  0  0  0  0  0  0  0  0  0  0  0
  134.2410  133.3300  154.6480 O   0  0  0  0  0  0  0  0  0  0  0  0
  136.3930  135.7270  154.7790 C   0  0  0  0  0  3  0  0  0  0  0  0
  135.1130  135.5390  154.4160 C   0  0  0  0  0  3  0  0  0  0  0  0
  136.9370  137.0270  155.3040 C   0  0  0  0  0  2  0  0  0  0  0  0
  136.9220  137.0690  156.8350 C   0  0  0  0  0  2  0  0  0  0  0  0
  137.3190  135.7150  157.4290 C   0  0  0  0  0  2  0  0  0  0  0  0
  135.0180  134.9570  158.1100 C   0  0  0  0  0  1  0  0  0  0  0  0
  136.4100  135.3290  158.5950 C   0  0  0  0  0  2  0  0  0  0  0  0
  1 13  1  0  0  0  0
  2  1  2  0  0  0  0
  3  2  1  0  0  0  0
  4  3  1  0  0  0  0
  5  4  2  0  0  0  0
  6  7  2  0  0  0  0
  6  5  1  0  0  0  0
  7  8  1  0  0  0  0
  8  3  2  0  0  0  0
  9  6  1  0  0  0  0
 10  9  1  0  0  0  0
 11  7  1  0  0  0  0
 12 11  1  0  0  0  0
 13 16  1  0  0  0  0
 13 14  2  0  0  0  0
 15 17  1  0  0  0  0
 16 15  2  0  0  0  0
 17 18  1  0  0  0  0
 18 19  1  0  0  0  0
 19 21  1  0  0  0  0
 20 21  1  0  0  0  0
M  END
>  <MODEL>
1

>  <REMARK>
 VINA RESULT:    -6.700      0.000      0.000
 INTER + INTRA:         -10.789
 INTER:                  -9.998
 INTRA:                  -0.791
 UNBOUND:                -0.759
  Name = CHEMBL3745730
  11 active torsions:
  status: ('A' for Active; 'I' for Inactive)
    1  A    between atoms: C_1  and  C_2
    2  A    between atoms: C_2  and  C_3
    3  A    between atoms: C_3  and  C_4
    4  A    between atoms: C_4  and  C_5
    5  A    between atoms: C_5  and  C_6
    6  A    between atoms: C_7  and  C_8
    7  A    between atoms: C_8  and  C_10
    8  A    between atoms: C_11  and  C_12
    9  A    between atoms: C_15  and  O_16
   10  A    between atoms: C_17  and  O_18
   11  A    between atoms: O_18  and  C_19
                            x       y       z     vdW  Elec       q    Type
                         _______ _______ _______ _____ _____    ______ ____

>  <TORSDO>
F 9

>  <SCORE>
-6.700

>  <RMSD_LB>
0.000

>  <RMSD_UB>
0.000

$$$$
CHEMBL3745730
 OpenBabel10162523383D

 21 21  0  0  0  0  0  0  0  0999 V2000
  134.8710  134.1210  152.6580 C   0  0  0  0  0  3  0  0  0  0  0  0
  133.8620  134.5120  151.8610 C   0  0  0  0  0  3  0  0  0  0  0  0
  133.7520  134.1840  150.4260 C   0  0  0  0  0  0  0  0  0  0  0  0
  134.0490  132.8850  150.0000 C   0  0  0  0  0  3  0  0  0  0  0  0
  133.9050  132.5260  148.6550 C   0  0  0  0  0  3  0  0  0  0  0  0
  133.4510  133.4590  147.7200 C   0  0  0  0  0  0  0  0  0  0  0  0
  133.1470  134.7630  148.1210 C   0  0  0  0  0  0  0  0  0  0  0  0
  133.2960  135.1090  149.4730 C   0  0  0  0  0  3  0  0  0  0  0  0
  133.3200  133.0570  146.4200 O   0  0  0  0  0  0  0  0  0  0  0  0
  133.9340  133.3490  145.7750 H   0  0  0  0  0  0  0  0  0  0  0  0
  132.6990  135.8020  147.3440 O   0  0  0  0  0  0  0  0  0  0  0  0
  132.6390  137.0930  147.9380 C   0  0  0  0  0  1  0  0  0  0  0  0
  134.8910  134.5310  154.0920 C   0  0  0  0  0  0  0  0  0  0  0  0
  134.0940  134.0970  154.9120 O   0  0  0  0  0  0  0  0  0  0  0  0
  136.3520  135.6620  155.7210 C   0  0  0  0  0  3  0  0  0  0  0  0
  135.9580  135.5130  154.4460 C   0  0  0  0  0  3  0  0  0  0  0  0
  137.4130  136.6290  156.1670 C   0  0  0  0  0  2  0  0  0  0  0  0
  137.4400  137.8830  155.2880 C   0  0  0  0  0  2  0  0  0  0  0  0
  138.7640  137.9970  154.5290 C   0  0  0  0  0  2  0  0  0  0  0  0
  139.8900  137.8430  152.2830 C   0  0  0  0  0  1  0  0  0  0  0  0
  138.5630  137.8160  153.0240 C   0  0  0  0  0  2  0  0  0  0  0  0
  1 13  1  0  0  0  0
  2  1  2  0  0  0  0
  3  2  1  0  0  0  0
  4  3  1  0  0  0  0
  5  4  2  0  0  0  0
  6  7  2  0  0  0  0
  6  5  1  0  0  0  0
  7  8  1  0  0  0  0
  8  3  2  0  0  0  0
  9  6  1  0  0  0  0
 10  9  1  0  0  0  0
 11 12  1  0  0  0  0
 11  7  1  0  0  0  0
 13 16  1  0  0  0  0
 13 14  2  0  0  0  0
 15 17  1  0  0  0  0
 16 15  2  0  0  0  0
 18 17  1  0  0  0  0
 19 18  1  0  0  0  0
 20 21  1  0  0  0  0
 21 19  1  0  0  0  0
M  END
>  <MODEL>
2

>  <REMARK>
 VINA RESULT:    -6.584      1.395      2.585
 INTER + INTRA:         -10.614
 INTER:                  -9.963
 INTRA:                  -0.652
 UNBOUND:                -0.759
  Name = CHEMBL3745730
  11 active torsions:
  status: ('A' for Active; 'I' for Inactive)
    1  A    between atoms: C_1  and  C_2
    2  A    between atoms: C_2  and  C_3
    3  A    between atoms: C_3  and  C_4
    4  A    between atoms: C_4  and  C_5
    5  A    between atoms: C_5  and  C_6
    6  A    between atoms: C_7  and  C_8
    7  A    between atoms: C_8  and  C_10
    8  A    between atoms: C_11  and  C_12
    9  A    between atoms: C_15  and  O_16
   10  A    between atoms: C_17  and  O_18
   11  A    between atoms: O_18  and  C_19
                            x       y       z     vdW  Elec       q    Type
                         _______ _______ _______ _____ _____    ______ ____

>  <TORSDO>
F 9

>  <SCORE>
-6.584

>  <RMSD_LB>
1.395

>  <RMSD_UB>
2.585

$$$$
CHEMBL3745730
 OpenBabel10162523383D

 21 21  0  0  0  0  0  0  0  0999 V2000
  144.4330  137.4580  152.9050 C   0  0  0  0  0  3  0  0  0  0  0  0
  143.3540  137.6680  153.6780 C   0  0  0  0  0  3  0  0  0  0  0  0
  141.9770  137.8220  153.1720 C   0  0  0  0  0  0  0  0  0  0  0  0
  141.6850  137.4280  151.8620 C   0  0  0  0  0  3  0  0  0  0  0  0
  140.3790  137.5110  151.3670 C   0  0  0  0  0  3  0  0  0  0  0  0
  139.3450  137.9790  152.1790 C   0  0  0  0  0  0  0  0  0  0  0  0
  139.6100  138.3790  153.4920 C   0  0  0  0  0  0  0  0  0  0  0  0
  140.9260  138.2900  153.9750 C   0  0  0  0  0  3  0  0  0  0  0  0
  138.0850  138.0340  151.6510 O   0  0  0  0  0  0  0  0  0  0  0  0
  137.8900  138.6450  150.9680 H   0  0  0  0  0  0  0  0  0  0  0  0
  138.7260  138.8670  154.4220 O   0  0  0  0  0  0  0  0  0  0  0  0
  138.5750  138.1410  155.6350 C   0  0  0  0  0  1  0  0  0  0  0  0
  145.7850  137.3400  153.5240 C   0  0  0  0  0  0  0  0  0  0  0  0
  146.1510  136.3360  154.1200 O   0  0  0  0  0  0  0  0  0  0  0  0
  146.4650  139.6290  154.1280 C   0  0  0  0  0  3  0  0  0  0  0  0
  146.6540  138.5420  153.3610 C   0  0  0  0  0  3  0  0  0  0  0  0
  147.2890  140.8830  154.0280 C   0  0  0  0  0  2  0  0  0  0  0  0
  146.4110  142.1190  153.8090 C   0  0  0  0  0  2  0  0  0  0  0  0
  146.0040  142.2550  152.3400 C   0  0  0  0  0  2  0  0  0  0  0  0
  146.8260  142.5150  149.9750 C   0  0  0  0  0  1  0  0  0  0  0  0
  147.2250  142.2660  151.4210 C   0  0  0  0  0  2  0  0  0  0  0  0
  1 13  1  0  0  0  0
  1  2  2  0  0  0  0
  3  2  1  0  0  0  0
  3  8  1  0  0  0  0
  4  3  2  0  0  0  0
  5  4  1  0  0  0  0
  5  6  2  0  0  0  0
  6  7  1  0  0  0  0
  7  8  2  0  0  0  0
  7 11  1  0  0  0  0
  9  6  1  0  0  0  0
 10  9  1  0  0  0  0
 11 12  1  0  0  0  0
 13 14  2  0  0  0  0
 16 13  1  0  0  0  0
 16 15  2  0  0  0  0
 17 15  1  0  0  0  0
 18 17  1  0  0  0  0
 19 18  1  0  0  0  0
 20 21  1  0  0  0  0
 21 19  1  0  0  0  0
M  END
>  <MODEL>
3

>  <REMARK>
 VINA RESULT:    -6.507      8.499     11.030
 INTER + INTRA:         -10.500
 INTER:                  -9.715
 INTRA:                  -0.785
 UNBOUND:                -0.759
  Name = CHEMBL3745730
  11 active torsions:
  status: ('A' for Active; 'I' for Inactive)
    1  A    between atoms: C_1  and  C_2
    2  A    between atoms: C_2  and  C_3
    3  A    between atoms: C_3  and  C_4
    4  A    between atoms: C_4  and  C_5
    5  A    between atoms: C_5  and  C_6
    6  A    between atoms: C_7  and  C_8
    7  A    between atoms: C_8  and  C_10
    8  A    between atoms: C_11  and  C_12
    9  A    between atoms: C_15  and  O_16
   10  A    between atoms: C_17  and  O_18
   11  A    between atoms: O_18  and  C_19
                            x       y       z     vdW  Elec       q    Type
                         _______ _______ _______ _____ _____    ______ ____

>  <TORSDO>
F 9

>  <SCORE>
-6.507

>  <RMSD_LB>
8.499

>  <RMSD_UB>
11.030

$$$$
CHEMBL3745730
 OpenBabel10162523383D

 21 21  0  0  0  0  0  0  0  0999 V2000
  135.5550  135.7900  154.1000 C   0  0  0  0  0  3  0  0  0  0  0  0
  136.5190  136.2620  153.2920 C   0  0  0  0  0  3  0  0  0  0  0  0
  137.6410  137.1120  153.7350 C   0  0  0  0  0  0  0  0  0  0  0  0
  138.3630  137.8380  152.7810 C   0  0  0  0  0  3  0  0  0  0  0  0
  139.3990  138.6940  153.1720 C   0  0  0  0  0  3  0  0  0  0  0  0
  139.7190  138.8440  154.5220 C   0  0  0  0  0  0  0  0  0  0  0  0
  139.0120  138.1300  155.4950 C   0  0  0  0  0  0  0  0  0  0  0  0
  137.9760  137.2750  155.0880 C   0  0  0  0  0  3  0  0  0  0  0  0
  140.7350  139.6980  154.8530 O   0  0  0  0  0  0  0  0  0  0  0  0
  141.2320  139.5550  155.6340 H   0  0  0  0  0  0  0  0  0  0  0  0
  139.1940  138.1500  156.8550 O   0  0  0  0  0  0  0  0  0  0  0  0
  138.1110  137.7270  157.6720 C   0  0  0  0  0  1  0  0  0  0  0  0
  134.4520  134.9570  153.5390 C   0  0  0  0  0  0  0  0  0  0  0  0
  133.5960  134.4380  154.2420 O   0  0  0  0  0  0  0  0  0  0  0  0
  134.1410  133.6370  151.4830 C   0  0  0  0  0  3  0  0  0  0  0  0
  134.4760  134.8050  152.0550 C   0  0  0  0  0  3  0  0  0  0  0  0
  134.1420  133.3950  149.9990 C   0  0  0  0  0  2  0  0  0  0  0  0
  132.7630  133.6490  149.3840 C   0  0  0  0  0  2  0  0  0  0  0  0
  132.8560  134.6060  148.1930 C   0  0  0  0  0  2  0  0  0  0  0  0
  132.6380  136.9820  148.9920 C   0  0  0  0  0  1  0  0  0  0  0  0
  133.6020  135.8870  148.5640 C   0  0  0  0  0  2  0  0  0  0  0  0
  2  3  1  0  0  0  0
  2  1  2  0  0  0  0
  3  8  1  0  0  0  0
  4  5  1  0  0  0  0
  4  3  2  0  0  0  0
  5  6  2  0  0  0  0
  6  9  1  0  0  0  0
  6  7  1  0  0  0  0
  7 11  1  0  0  0  0
  8  7  2  0  0  0  0
  9 10  1  0  0  0  0
 11 12  1  0  0  0  0
 13  1  1  0  0  0  0
 13 14  2  0  0  0  0
 15 16  2  0  0  0  0
 16 13  1  0  0  0  0
 17 15  1  0  0  0  0
 18 17  1  0  0  0  0
 19 21  1  0  0  0  0
 19 18  1  0  0  0  0
 21 20  1  0  0  0  0
M  END
>  <MODEL>
4

>  <REMARK>
 VINA RESULT:    -6.501      3.141      8.427
 INTER + INTRA:         -10.491
 INTER:                  -9.650
 INTRA:                  -0.841
 UNBOUND:                -0.759
  Name = CHEMBL3745730
  11 active torsions:
  status: ('A' for Active; 'I' for Inactive)
    1  A    between atoms: C_1  and  C_2
    2  A    between atoms: C_2  and  C_3
    3  A    between atoms: C_3  and  C_4
    4  A    between atoms: C_4  and  C_5
    5  A    between atoms: C_5  and  C_6
    6  A    between atoms: C_7  and  C_8
    7  A    between atoms: C_8  and  C_10
    8  A    between atoms: C_11  and  C_12
    9  A    between atoms: C_15  and  O_16
   10  A    between atoms: C_17  and  O_18
   11  A    between atoms: O_18  and  C_19
                            x       y       z     vdW  Elec       q    Type
                         _______ _______ _______ _____ _____    ______ ____

>  <TORSDO>
F 9

>  <SCORE>
-6.501

>  <RMSD_LB>
3.141

>  <RMSD_UB>
8.427

$$$$
CHEMBL3745730
 OpenBabel10162523383D

 21 21  0  0  0  0  0  0  0  0999 V2000
  137.9300  137.8040  154.5640 C   0  0  0  0  0  3  0  0  0  0  0  0
  137.9660  136.8730  155.5320 C   0  0  0  0  0  3  0  0  0  0  0  0
  136.7980  136.1010  155.9960 C   0  0  0  0  0  0  0  0  0  0  0  0
  136.6590  135.8300  157.3610 C   0  0  0  0  0  3  0  0  0  0  0  0
  135.5360  135.1470  157.8410 C   0  0  0  0  0  3  0  0  0  0  0  0
  134.5310  134.7350  156.9640 C   0  0  0  0  0  0  0  0  0  0  0  0
  134.6460  134.9940  155.5950 C   0  0  0  0  0  0  0  0  0  0  0  0
  135.7780  135.6800  155.1270 C   0  0  0  0  0  3  0  0  0  0  0  0
  133.4510  134.0770  157.4840 O   0  0  0  0  0  0  0  0  0  0  0  0
  133.0570  133.3740  157.0060 H   0  0  0  0  0  0  0  0  0  0  0  0
  133.7670  134.6590  154.5960 O   0  0  0  0  0  0  0  0  0  0  0  0
  134.2840  133.9760  153.4610 C   0  0  0  0  0  1  0  0  0  0  0  0
  139.1720  138.5420  154.1910 C   0  0  0  0  0  0  0  0  0  0  0  0
  139.6230  139.4560  154.8670 O   0  0  0  0  0  0  0  0  0  0  0  0
  139.0700  137.7020  151.8780 C   0  0  0  0  0  3  0  0  0  0  0  0
  139.8180  138.0800  152.9280 C   0  0  0  0  0  3  0  0  0  0  0  0
  139.6370  137.2190  150.5710 C   0  0  0  0  0  2  0  0  0  0  0  0
  138.5660  136.5470  149.7060 C   0  0  0  0  0  2  0  0  0  0  0  0
  137.2110  137.2400  149.8650 C   0  0  0  0  0  2  0  0  0  0  0  0
  136.5740  134.8280  150.2030 C   0  0  0  0  0  1  0  0  0  0  0  0
  136.1500  136.2760  150.3950 C   0  0  0  0  0  2  0  0  0  0  0  0
  1  2  2  0  0  0  0
  2  3  1  0  0  0  0
  3  4  1  0  0  0  0
  4  5  2  0  0  0  0
  6  9  1  0  0  0  0
  6  5  1  0  0  0  0
  7  6  2  0  0  0  0
  8  7  1  0  0  0  0
  8  3  2  0  0  0  0
 10  9  1  0  0  0  0
 11  7  1  0  0  0  0
 12 11  1  0  0  0  0
 13  1  1  0  0  0  0
 13 14  2  0  0  0  0
 15 16  2  0  0  0  0
 16 13  1  0  0  0  0
 17 15  1  0  0  0  0
 18 19  1  0  0  0  0
 18 17  1  0  0  0  0
 19 21  1  0  0  0  0
 20 21  1  0  0  0  0
M  END
>  <MODEL>
5

>  <REMARK>
 VINA RESULT:    -6.410      3.543      7.624
 INTER + INTRA:         -10.355
 INTER:                  -9.420
 INTRA:                  -0.936
 UNBOUND:                -0.759
  Name = CHEMBL3745730
  11 active torsions:
  status: ('A' for Active; 'I' for Inactive)
    1  A    between atoms: C_1  and  C_2
    2  A    between atoms: C_2  and  C_3
    3  A    between atoms: C_3  and  C_4
    4  A    between atoms: C_4  and  C_5
    5  A    between atoms: C_5  and  C_6
    6  A    between atoms: C_7  and  C_8
    7  A    between atoms: C_8  and  C_10
    8  A    between atoms: C_11  and  C_12
    9  A    between atoms: C_15  and  O_16
   10  A    between atoms: C_17  and  O_18
   11  A    between atoms: O_18  and  C_19
                            x       y       z     vdW  Elec       q    Type
                         _______ _______ _______ _____ _____    ______ ____

>  <TORSDO>
F 9

>  <SCORE>
-6.410

>  <RMSD_LB>
3.543

>  <RMSD_UB>
7.624

$$$$
CHEMBL3745730
 OpenBabel10162523383D

 21 21  0  0  0  0  0  0  0  0999 V2000
  138.0680  137.6490  154.0880 C   0  0  0  0  0  3  0  0  0  0  0  0
  137.6830  137.4430  155.3590 C   0  0  0  0  0  3  0  0  0  0  0  0
  136.6440  136.4820  155.7750 C   0  0  0  0  0  0  0  0  0  0  0  0
  136.6350  136.0170  157.0940 C   0  0  0  0  0  3  0  0  0  0  0  0
  135.6330  135.1460  157.5360 C   0  0  0  0  0  3  0  0  0  0  0  0
  134.6190  134.7370  156.6670 C   0  0  0  0  0  0  0  0  0  0  0  0
  134.6050  135.1890  155.3440 C   0  0  0  0  0  0  0  0  0  0  0  0
  135.6170  136.0620  154.9150 C   0  0  0  0  0  3  0  0  0  0  0  0
  133.6590  133.8910  157.1490 O   0  0  0  0  0  0  0  0  0  0  0  0
  133.3810  133.9570  158.0410 H   0  0  0  0  0  0  0  0  0  0  0  0
  133.6970  134.8880  154.3590 O   0  0  0  0  0  0  0  0  0  0  0  0
  133.9830  135.3330  153.0390 C   0  0  0  0  0  1  0  0  0  0  0  0
  139.1140  138.6660  153.7800 C   0  0  0  0  0  0  0  0  0  0  0  0
  139.3020  139.6500  154.4820 O   0  0  0  0  0  0  0  0  0  0  0  0
  140.9830  137.5800  152.5980 C   0  0  0  0  0  3  0  0  0  0  0  0
  139.9120  138.3890  152.5500 C   0  0  0  0  0  3  0  0  0  0  0  0
  141.8440  137.2510  151.4110 C   0  0  0  0  0  2  0  0  0  0  0  0
  143.3260  137.5070  151.7000 C   0  0  0  0  0  2  0  0  0  0  0  0
  143.5590  137.7880  153.1860 C   0  0  0  0  0  2  0  0  0  0  0  0
  145.9260  137.0420  153.6070 C   0  0  0  0  0  1  0  0  0  0  0  0
  144.4540  136.7250  153.8220 C   0  0  0  0  0  2  0  0  0  0  0  0
  1  2  2  0  0  0  0
  2  3  1  0  0  0  0
  3  4  1  0  0  0  0
  4  5  2  0  0  0  0
  6  9  1  0  0  0  0
  6  5  1  0  0  0  0
  7  6  2  0  0  0  0
  8  7  1  0  0  0  0
  8  3  2  0  0  0  0
  9 10  1  0  0  0  0
 11  7  1  0  0  0  0
 12 11  1  0  0  0  0
 13  1  1  0  0  0  0
 13 14  2  0  0  0  0
 16 15  2  0  0  0  0
 16 13  1  0  0  0  0
 17 18  1  0  0  0  0
 17 15  1  0  0  0  0
 18 19  1  0  0  0  0
 19 21  1  0  0  0  0
 20 21  1  0  0  0  0
M  END
>  <MODEL>
6

>  <REMARK>
 VINA RESULT:    -6.360      4.608      7.918
 INTER + INTRA:         -10.279
 INTER:                  -9.688
 INTRA:                  -0.591
 UNBOUND:                -0.759
  Name = CHEMBL3745730
  11 active torsions:
  status: ('A' for Active; 'I' for Inactive)
    1  A    between atoms: C_1  and  C_2
    2  A    between atoms: C_2  and  C_3
    3  A    between atoms: C_3  and  C_4
    4  A    between atoms: C_4  and  C_5
    5  A    between atoms: C_5  and  C_6
    6  A    between atoms: C_7  and  C_8
    7  A    between atoms: C_8  and  C_10
    8  A    between atoms: C_11  and  C_12
    9  A    between atoms: C_15  and  O_16
   10  A    between atoms: C_17  and  O_18
   11  A    between atoms: O_18  and  C_19
                            x       y       z     vdW  Elec       q    Type
                         _______ _______ _______ _____ _____    ______ ____

>  <TORSDO>
F 9

>  <SCORE>
-6.360

>  <RMSD_LB>
4.608

>  <RMSD_UB>
7.918

$$$$
CHEMBL3745730
 OpenBabel10162523383D

 21 21  0  0  0  0  0  0  0  0999 V2000
  138.7990  137.5970  155.2040 C   0  0  0  0  0  3  0  0  0  0  0  0
  137.6500  137.2250  154.6140 C   0  0  0  0  0  3  0  0  0  0  0  0
  136.6390  136.3450  155.2320 C   0  0  0  0  0  0  0  0  0  0  0  0
  136.5070  136.3310  156.6240 C   0  0  0  0  0  3  0  0  0  0  0  0
  135.5230  135.5490  157.2390 C   0  0  0  0  0  3  0  0  0  0  0  0
  134.6500  134.7780  156.4690 C   0  0  0  0  0  0  0  0  0  0  0  0
  134.7600  134.7760  155.0750 C   0  0  0  0  0  0  0  0  0  0  0  0
  135.7520  135.5660  154.4720 C   0  0  0  0  0  3  0  0  0  0  0  0
  133.7020  134.0370  157.1170 O   0  0  0  0  0  0  0  0  0  0  0  0
  132.9440  134.4560  157.4750 H   0  0  0  0  0  0  0  0  0  0  0  0
  133.9990  134.0800  154.1690 O   0  0  0  0  0  0  0  0  0  0  0  0
  133.6360  134.7430  152.9650 C   0  0  0  0  0  1  0  0  0  0  0  0
  139.7620  138.4730  154.4750 C   0  0  0  0  0  0  0  0  0  0  0  0
  140.0650  139.5900  154.8720 O   0  0  0  0  0  0  0  0  0  0  0  0
  141.6450  137.9230  152.9860 C   0  0  0  0  0  3  0  0  0  0  0  0
  140.3240  137.8810  153.2260 C   0  0  0  0  0  3  0  0  0  0  0  0
  142.2940  137.3570  151.7540 C   0  0  0  0  0  2  0  0  0  0  0  0
  141.4380  137.5920  150.5050 C   0  0  0  0  0  2  0  0  0  0  0  0
  141.5260  136.4050  149.5430 C   0  0  0  0  0  2  0  0  0  0  0  0
  143.0240  134.6480  148.5410 C   0  0  0  0  0  1  0  0  0  0  0  0
  142.9390  135.8230  149.5010 C   0  0  0  0  0  2  0  0  0  0  0  0
  2  1  2  0  0  0  0
  2  3  1  0  0  0  0
  3  4  1  0  0  0  0
  4  5  2  0  0  0  0
  6  9  1  0  0  0  0
  6  5  1  0  0  0  0
  7  6  2  0  0  0  0
  8  7  1  0  0  0  0
  8  3  2  0  0  0  0
  9 10  1  0  0  0  0
 11  7  1  0  0  0  0
 12 11  1  0  0  0  0
 13 14  2  0  0  0  0
 13  1  1  0  0  0  0
 15 16  2  0  0  0  0
 16 13  1  0  0  0  0
 17 15  1  0  0  0  0
 18 17  1  0  0  0  0
 19 18  1  0  0  0  0
 20 21  1  0  0  0  0
 21 19  1  0  0  0  0
M  END
>  <MODEL>
7

>  <REMARK>
 VINA RESULT:    -6.267      4.714      8.097
 INTER + INTRA:         -10.141
 INTER:                  -9.538
 INTRA:                  -0.603
 UNBOUND:                -0.759
  Name = CHEMBL3745730
  11 active torsions:
  status: ('A' for Active; 'I' for Inactive)
    1  A    between atoms: C_1  and  C_2
    2  A    between atoms: C_2  and  C_3
    3  A    between atoms: C_3  and  C_4
    4  A    between atoms: C_4  and  C_5
    5  A    between atoms: C_5  and  C_6
    6  A    between atoms: C_7  and  C_8
    7  A    between atoms: C_8  and  C_10
    8  A    between atoms: C_11  and  C_12
    9  A    between atoms: C_15  and  O_16
   10  A    between atoms: C_17  and  O_18
   11  A    between atoms: O_18  and  C_19
                            x       y       z     vdW  Elec       q    Type
                         _______ _______ _______ _____ _____    ______ ____

>  <TORSDO>
F 9

>  <SCORE>
-6.267

>  <RMSD_LB>
4.714

>  <RMSD_UB>
8.097

$$$$
CHEMBL3745730
 OpenBabel10162523383D

 21 21  0  0  0  0  0  0  0  0999 V2000
  143.6950  137.2500  151.6600 C   0  0  0  0  0  3  0  0  0  0  0  0
  143.1900  137.7270  152.8110 C   0  0  0  0  0  3  0  0  0  0  0  0
  141.7490  137.8690  153.0980 C   0  0  0  0  0  0  0  0  0  0  0  0
  140.8270  137.6930  152.0610 C   0  0  0  0  0  3  0  0  0  0  0  0
  139.4520  137.7680  152.3100 C   0  0  0  0  0  3  0  0  0  0  0  0
  138.9800  138.0080  153.6020 C   0  0  0  0  0  0  0  0  0  0  0  0
  139.8820  138.1880  154.6560 C   0  0  0  0  0  0  0  0  0  0  0  0
  141.2580  138.1100  154.3910 C   0  0  0  0  0  3  0  0  0  0  0  0
  137.6280  138.0650  153.7940 O   0  0  0  0  0  0  0  0  0  0  0  0
  137.0800  137.3760  153.4750 H   0  0  0  0  0  0  0  0  0  0  0  0
  139.5980  138.4370  155.9750 O   0  0  0  0  0  0  0  0  0  0  0  0
  139.2210  137.3350  156.7900 C   0  0  0  0  0  1  0  0  0  0  0  0
  145.1720  137.1730  151.4680 C   0  0  0  0  0  0  0  0  0  0  0  0
  145.8480  136.2610  151.9250 O   0  0  0  0  0  0  0  0  0  0  0  0
  144.9630  139.1750  150.0490 C   0  0  0  0  0  3  0  0  0  0  0  0
  145.7590  138.2940  150.6780 C   0  0  0  0  0  3  0  0  0  0  0  0
  145.4690  140.3290  149.2290 C   0  0  0  0  0  2  0  0  0  0  0  0
  146.6370  141.0420  149.9170 C   0  0  0  0  0  2  0  0  0  0  0  0
  146.2320  142.4420  150.3860 C   0  0  0  0  0  2  0  0  0  0  0  0
  146.6630  142.2320  152.8570 C   0  0  0  0  0  1  0  0  0  0  0  0
  145.6050  142.4040  151.7790 C   0  0  0  0  0  2  0  0  0  0  0  0
  1  2  2  0  0  0  0
  2  3  1  0  0  0  0
  3  8  1  0  0  0  0
  4  5  1  0  0  0  0
  4  3  2  0  0  0  0
  5  6  2  0  0  0  0
  6  9  1  0  0  0  0
  6  7  1  0  0  0  0
  7 11  1  0  0  0  0
  8  7  2  0  0  0  0
 10  9  1  0  0  0  0
 11 12  1  0  0  0  0
 13  1  1  0  0  0  0
 13 14  2  0  0  0  0
 15 16  2  0  0  0  0
 16 13  1  0  0  0  0
 17 18  1  0  0  0  0
 17 15  1  0  0  0  0
 18 19  1  0  0  0  0
 19 21  1  0  0  0  0
 21 20  1  0  0  0  0
M  END
>  <MODEL>
8

>  <REMARK>
 VINA RESULT:    -6.189      8.324     11.117
 INTER + INTRA:         -10.023
 INTER:                  -9.200
 INTRA:                  -0.824
 UNBOUND:                -0.759
  Name = CHEMBL3745730
  11 active torsions:
  status: ('A' for Active; 'I' for Inactive)
    1  A    between atoms: C_1  and  C_2
    2  A    between atoms: C_2  and  C_3
    3  A    between atoms: C_3  and  C_4
    4  A    between atoms: C_4  and  C_5
    5  A    between atoms: C_5  and  C_6
    6  A    between atoms: C_7  and  C_8
    7  A    between atoms: C_8  and  C_10
    8  A    between atoms: C_11  and  C_12
    9  A    between atoms: C_15  and  O_16
   10  A    between atoms: C_17  and  O_18
   11  A    between atoms: O_18  and  C_19
                            x       y       z     vdW  Elec       q    Type
                         _______ _______ _______ _____ _____    ______ ____

>  <TORSDO>
F 9

>  <SCORE>
-6.189

>  <RMSD_LB>
8.324

>  <RMSD_UB>
11.117

$$$$
CHEMBL3745730
 OpenBabel10162523383D

 21 21  0  0  0  0  0  0  0  0999 V2000
  139.1890  138.1320  155.0550 C   0  0  0  0  0  3  0  0  0  0  0  0
  139.3800  138.2240  153.7280 C   0  0  0  0  0  3  0  0  0  0  0  0
  140.6960  138.1490  153.0650 C   0  0  0  0  0  0  0  0  0  0  0  0
  140.8210  137.4140  151.8810 C   0  0  0  0  0  3  0  0  0  0  0  0
  142.0420  137.3650  151.1980 C   0  0  0  0  0  3  0  0  0  0  0  0
  143.1510  138.0600  151.6830 C   0  0  0  0  0  0  0  0  0  0  0  0
  143.0520  138.8020  152.8640 C   0  0  0  0  0  0  0  0  0  0  0  0
  141.8210  138.8420  153.5380 C   0  0  0  0  0  3  0  0  0  0  0  0
  144.3180  137.9870  150.9760 O   0  0  0  0  0  0  0  0  0  0  0  0
  144.8570  137.2230  151.0390 H   0  0  0  0  0  0  0  0  0  0  0  0
  144.0320  139.5350  153.4860 O   0  0  0  0  0  0  0  0  0  0  0  0
  144.8710  138.8610  154.4150 C   0  0  0  0  0  1  0  0  0  0  0  0
  137.8130  138.2460  155.6200 C   0  0  0  0  0  0  0  0  0  0  0  0
  137.0140  139.0910  155.2410 O   0  0  0  0  0  0  0  0  0  0  0  0
  136.3840  136.4920  156.5940 C   0  0  0  0  0  3  0  0  0  0  0  0
  137.4900  137.2500  156.6830 C   0  0  0  0  0  3  0  0  0  0  0  0
  135.9800  135.4700  157.6200 C   0  0  0  0  0  2  0  0  0  0  0  0
  136.5650  135.7910  158.9990 C   0  0  0  0  0  2  0  0  0  0  0  0
  135.5980  136.6400  159.8260 C   0  0  0  0  0  2  0  0  0  0  0  0
  137.6220  138.0390  160.3580 C   0  0  0  0  0  1  0  0  0  0  0  0
  136.1360  138.0550  160.0360 C   0  0  0  0  0  2  0  0  0  0  0  0
  1 13  1  0  0  0  0
  2  1  2  0  0  0  0
  3  8  1  0  0  0  0
  3  2  1  0  0  0  0
  4  3  2  0  0  0  0
  5  6  2  0  0  0  0
  5  4  1  0  0  0  0
  6  7  1  0  0  0  0
  7 11  1  0  0  0  0
  7  8  2  0  0  0  0
  9 10  1  0  0  0  0
  9  6  1  0  0  0  0
 11 12  1  0  0  0  0
 13 16  1  0  0  0  0
 14 13  2  0  0  0  0
 15 16  2  0  0  0  0
 15 17  1  0  0  0  0
 17 18  1  0  0  0  0
 18 19  1  0  0  0  0
 19 21  1  0  0  0  0
 21 20  1  0  0  0  0
M  END
>  <MODEL>
9

>  <REMARK>
 VINA RESULT:    -5.999      6.681      8.430
 INTER + INTRA:          -9.739
 INTER:                  -8.980
 INTRA:                  -0.759
 UNBOUND:                -0.759
  Name = CHEMBL3745730
  11 active torsions:
  status: ('A' for Active; 'I' for Inactive)
    1  A    between atoms: C_1  and  C_2
    2  A    between atoms: C_2  and  C_3
    3  A    between atoms: C_3  and  C_4
    4  A    between atoms: C_4  and  C_5
    5  A    between atoms: C_5  and  C_6
    6  A    between atoms: C_7  and  C_8
    7  A    between atoms: C_8  and  C_10
    8  A    between atoms: C_11  and  C_12
    9  A    between atoms: C_15  and  O_16
   10  A    between atoms: C_17  and  O_18
   11  A    between atoms: O_18  and  C_19
                            x       y       z     vdW  Elec       q    Type
                         _______ _______ _______ _____ _____    ______ ____

>  <TORSDO>
F 9

>  <SCORE>
-5.999

>  <RMSD_LB>
6.681

>  <RMSD_UB>
8.430

$$$$
