CHEMBL3884622
 OpenBabel10172500333D

 21 21  0  0  0  0  0  0  0  0999 V2000
  144.8690  141.0530  150.2830 C   0  0  0  0  0  2  0  0  0  0  0  0
  143.9060  140.2900  151.1550 C   0  0  0  0  0  0  0  0  0  0  0  0
  142.6830  139.8560  150.6410 C   0  0  0  0  0  3  0  0  0  0  0  0
  141.8130  139.1000  151.4320 C   0  0  0  0  0  3  0  0  0  0  0  0
  142.1500  138.7530  152.7490 C   0  0  0  0  0  0  0  0  0  0  0  0
  143.3900  139.1740  153.2630 C   0  0  0  0  0  0  0  0  0  0  0  0
  144.2300  139.9790  152.4800 C   0  0  0  0  0  3  0  0  0  0  0  0
  141.3250  138.0380  153.5730 O   0  0  0  0  0  0  0  0  0  0  0  0
  140.1910  138.6890  154.1280 C   0  0  0  0  0  1  0  0  0  0  0  0
  143.9150  138.8990  154.5030 O   0  0  0  0  0  0  0  0  0  0  0  0
  143.6130  139.8120  155.5530 C   0  0  0  0  0  1  0  0  0  0  0  0
  145.4270  142.2690  151.0100 C   0  0  0  0  0  2  0  0  0  0  0  0
  146.9130  142.4090  150.7730 C   0  0  0  0  0  0  0  0  0  0  0  0
  147.3790  142.9300  149.7680 O   0  0  0  0  0  0  0  0  0  0  0  0
  147.4040  141.9630  153.1360 C   0  0  0  0  0  3  0  0  0  0  0  0
  147.7960  141.8880  151.8590 C   0  0  0  0  0  3  0  0  0  0  0  0
  148.2340  141.4700  154.2850 C   0  0  0  0  0  2  0  0  0  0  0  0
  148.6580  140.0160  154.0830 C   0  0  0  0  0  2  0  0  0  0  0  0
  147.8780  139.0840  155.0080 C   0  0  0  0  0  2  0  0  0  0  0  0
  147.4800  138.0720  152.7400 C   0  0  0  0  0  1  0  0  0  0  0  0
  147.1140  138.0250  154.2140 C   0  0  0  0  0  2  0  0  0  0  0  0
  1 12  1  0  0  0  0
  1  2  1  0  0  0  0
  2  7  1  0  0  0  0
  3  2  2  0  0  0  0
  3  4  1  0  0  0  0
  4  5  2  0  0  0  0
  5  6  1  0  0  0  0
  5  8  1  0  0  0  0
  6 10  1  0  0  0  0
  7  6  2  0  0  0  0
  8  9  1  0  0  0  0
 10 11  1  0  0  0  0
 13 12  1  0  0  0  0
 13 16  1  0  0  0  0
 14 13  2  0  0  0  0
 15 17  1  0  0  0  0
 16 15  2  0  0  0  0
 18 17  1  0  0  0  0
 18 19  1  0  0  0  0
 20 21  1  0  0  0  0
 21 19  1  0  0  0  0
M  END
>  <MODEL>
1

>  <REMARK>
 VINA RESULT:    -5.901      0.000      0.000
 INTER + INTRA:         -10.576
 INTER:                  -8.940
 INTRA:                  -1.635
 UNBOUND:                -1.225
  Name = CHEMBL3884622
  13 active torsions:
  status: ('A' for Active; 'I' for Inactive)
    1  A    between atoms: C_1  and  C_2
    2  A    between atoms: C_2  and  C_3
    3  A    between atoms: C_3  and  C_4
    4  A    between atoms: C_4  and  C_5
    5  A    between atoms: C_5  and  C_6
    6  A    between atoms: C_7  and  C_8
    7  A    between atoms: C_8  and  C_10
    8  A    between atoms: C_10  and  C_11
    9  A    between atoms: C_11  and  C_12
   10  A    between atoms: C_15  and  O_16
   11  A    between atoms: O_16  and  C_17
   12  A    between atoms: C_18  and  O_19
   13  A    between atoms: O_19  and  C_20
                            x       y       z     vdW  Elec       q    Type
                         _______ _______ _______ _____ _____    ______ ____

>  <TORSDO>
F 10

>  <SCORE>
-5.901

>  <RMSD_LB>
0.000

>  <RMSD_UB>
0.000

$$$$
CHEMBL3884622
 OpenBabel10172500333D

 21 21  0  0  0  0  0  0  0  0999 V2000
  145.4820  137.8140  150.3050 C   0  0  0  0  0  2  0  0  0  0  0  0
  145.9220  138.0200  151.7310 C   0  0  0  0  0  0  0  0  0  0  0  0
  147.2710  137.9190  152.0730 C   0  0  0  0  0  3  0  0  0  0  0  0
  147.6870  138.1640  153.3850 C   0  0  0  0  0  3  0  0  0  0  0  0
  146.7660  138.5250  154.3790 C   0  0  0  0  0  0  0  0  0  0  0  0
  145.4080  138.6460  154.0330 C   0  0  0  0  0  0  0  0  0  0  0  0
  144.9940  138.3430  152.7280 C   0  0  0  0  0  3  0  0  0  0  0  0
  147.1160  138.7510  155.6820 O   0  0  0  0  0  0  0  0  0  0  0  0
  148.0460  137.8700  156.2970 C   0  0  0  0  0  1  0  0  0  0  0  0
  144.3700  139.0290  154.8480 O   0  0  0  0  0  0  0  0  0  0  0  0
  143.1010  139.2260  154.2340 C   0  0  0  0  0  1  0  0  0  0  0  0
  144.1300  138.4640  150.0440 C   0  0  0  0  0  2  0  0  0  0  0  0
  144.2900  139.7740  149.3070 C   0  0  0  0  0  0  0  0  0  0  0  0
  143.8450  139.9610  148.1830 O   0  0  0  0  0  0  0  0  0  0  0  0
  146.1910  141.2990  149.5990 C   0  0  0  0  0  3  0  0  0  0  0  0
  145.0130  140.8510  150.0460 C   0  0  0  0  0  3  0  0  0  0  0  0
  146.9820  142.3720  150.2870 C   0  0  0  0  0  2  0  0  0  0  0  0
  147.5650  141.8740  151.6090 C   0  0  0  0  0  2  0  0  0  0  0  0
  146.6780  142.2780  152.7850 C   0  0  0  0  0  2  0  0  0  0  0  0
  148.8390  141.9020  154.0180 C   0  0  0  0  0  1  0  0  0  0  0  0
  147.3220  141.9060  154.1200 C   0  0  0  0  0  2  0  0  0  0  0  0
  1  2  1  0  0  0  0
  2  3  2  0  0  0  0
  2  7  1  0  0  0  0
  3  4  1  0  0  0  0
  4  5  2  0  0  0  0
  5  8  1  0  0  0  0
  6  5  1  0  0  0  0
  6 10  1  0  0  0  0
  7  6  2  0  0  0  0
  8  9  1  0  0  0  0
 11 10  1  0  0  0  0
 12  1  1  0  0  0  0
 13 12  1  0  0  0  0
 13 16  1  0  0  0  0
 14 13  2  0  0  0  0
 15 16  2  0  0  0  0
 15 17  1  0  0  0  0
 17 18  1  0  0  0  0
 18 19  1  0  0  0  0
 19 21  1  0  0  0  0
 20 21  1  0  0  0  0
M  END
>  <MODEL>
2

>  <REMARK>
 VINA RESULT:    -5.891      1.962      4.306
 INTER + INTRA:         -10.560
 INTER:                  -8.885
 INTRA:                  -1.676
 UNBOUND:                -1.225
  Name = CHEMBL3884622
  13 active torsions:
  status: ('A' for Active; 'I' for Inactive)
    1  A    between atoms: C_1  and  C_2
    2  A    between atoms: C_2  and  C_3
    3  A    between atoms: C_3  and  C_4
    4  A    between atoms: C_4  and  C_5
    5  A    between atoms: C_5  and  C_6
    6  A    between atoms: C_7  and  C_8
    7  A    between atoms: C_8  and  C_10
    8  A    between atoms: C_10  and  C_11
    9  A    between atoms: C_11  and  C_12
   10  A    between atoms: C_15  and  O_16
   11  A    between atoms: O_16  and  C_17
   12  A    between atoms: C_18  and  O_19
   13  A    between atoms: O_19  and  C_20
                            x       y       z     vdW  Elec       q    Type
                         _______ _______ _______ _____ _____    ______ ____

>  <TORSDO>
F 10

>  <SCORE>
-5.891

>  <RMSD_LB>
1.962

>  <RMSD_UB>
4.306

$$$$
CHEMBL3884622
 OpenBabel10172500333D

 21 21  0  0  0  0  0  0  0  0999 V2000
  141.8060  137.2790  151.0230 C   0  0  0  0  0  2  0  0  0  0  0  0
  140.7720  137.7440  152.0140 C   0  0  0  0  0  0  0  0  0  0  0  0
  139.4140  137.5530  151.7570 C   0  0  0  0  0  3  0  0  0  0  0  0
  138.4550  137.9340  152.7010 C   0  0  0  0  0  3  0  0  0  0  0  0
  138.8340  138.5040  153.9250 C   0  0  0  0  0  0  0  0  0  0  0  0
  140.2030  138.6820  154.1950 C   0  0  0  0  0  0  0  0  0  0  0  0
  141.1520  138.3480  153.2180 C   0  0  0  0  0  3  0  0  0  0  0  0
  137.9370  138.9180  154.8720 O   0  0  0  0  0  0  0  0  0  0  0  0
  137.3210  137.9380  155.6960 C   0  0  0  0  0  1  0  0  0  0  0  0
  140.7690  139.1770  155.3450 O   0  0  0  0  0  0  0  0  0  0  0  0
  142.1540  139.5050  155.2980 C   0  0  0  0  0  1  0  0  0  0  0  0
  143.1630  137.0910  151.6880 C   0  0  0  0  0  2  0  0  0  0  0  0
  144.2650  137.0010  150.6560 C   0  0  0  0  0  0  0  0  0  0  0  0
  144.6210  135.9430  150.1560 O   0  0  0  0  0  0  0  0  0  0  0  0
  145.3460  139.1390  151.1920 C   0  0  0  0  0  3  0  0  0  0  0  0
  144.8890  138.2990  150.2570 C   0  0  0  0  0  3  0  0  0  0  0  0
  145.9780  140.4620  150.8750 C   0  0  0  0  0  2  0  0  0  0  0  0
  145.1790  141.6200  151.4730 C   0  0  0  0  0  2  0  0  0  0  0  0
  146.0690  142.5110  152.3370 C   0  0  0  0  0  2  0  0  0  0  0  0
  147.8400  141.8480  153.9970 C   0  0  0  0  0  1  0  0  0  0  0  0
  147.4540  141.8950  152.5270 C   0  0  0  0  0  2  0  0  0  0  0  0
  1 12  1  0  0  0  0
  1  2  1  0  0  0  0
  2  7  1  0  0  0  0
  3  2  2  0  0  0  0
  3  4  1  0  0  0  0
  4  5  2  0  0  0  0
  5  6  1  0  0  0  0
  5  8  1  0  0  0  0
  6 10  1  0  0  0  0
  7  6  2  0  0  0  0
  8  9  1  0  0  0  0
 11 10  1  0  0  0  0
 13 12  1  0  0  0  0
 14 13  2  0  0  0  0
 16 13  1  0  0  0  0
 16 15  2  0  0  0  0
 17 15  1  0  0  0  0
 17 18  1  0  0  0  0
 18 19  1  0  0  0  0
 19 21  1  0  0  0  0
 21 20  1  0  0  0  0
M  END
>  <MODEL>
3

>  <REMARK>
 VINA RESULT:    -5.857      2.585      4.406
 INTER + INTRA:         -10.507
 INTER:                  -9.612
 INTRA:                  -0.895
 UNBOUND:                -1.225
  Name = CHEMBL3884622
  13 active torsions:
  status: ('A' for Active; 'I' for Inactive)
    1  A    between atoms: C_1  and  C_2
    2  A    between atoms: C_2  and  C_3
    3  A    between atoms: C_3  and  C_4
    4  A    between atoms: C_4  and  C_5
    5  A    between atoms: C_5  and  C_6
    6  A    between atoms: C_7  and  C_8
    7  A    between atoms: C_8  and  C_10
    8  A    between atoms: C_10  and  C_11
    9  A    between atoms: C_11  and  C_12
   10  A    between atoms: C_15  and  O_16
   11  A    between atoms: O_16  and  C_17
   12  A    between atoms: C_18  and  O_19
   13  A    between atoms: O_19  and  C_20
                            x       y       z     vdW  Elec       q    Type
                         _______ _______ _______ _____ _____    ______ ____

>  <TORSDO>
F 10

>  <SCORE>
-5.857

>  <RMSD_LB>
2.585

>  <RMSD_UB>
4.406

$$$$
CHEMBL3884622
 OpenBabel10172500333D

 21 21  0  0  0  0  0  0  0  0999 V2000
  146.8480  142.2660  152.1670 C   0  0  0  0  0  2  0  0  0  0  0  0
  146.2000  141.2460  151.2670 C   0  0  0  0  0  0  0  0  0  0  0  0
  146.9610  140.5540  150.3240 C   0  0  0  0  0  3  0  0  0  0  0  0
  146.3730  139.5690  149.5270 C   0  0  0  0  0  3  0  0  0  0  0  0
  145.0140  139.2460  149.6620 C   0  0  0  0  0  0  0  0  0  0  0  0
  144.2480  139.9300  150.6240 C   0  0  0  0  0  0  0  0  0  0  0  0
  144.8360  140.9550  151.3790 C   0  0  0  0  0  3  0  0  0  0  0  0
  144.3830  138.3090  148.8900 O   0  0  0  0  0  0  0  0  0  0  0  0
  143.8520  138.7100  147.6350 C   0  0  0  0  0  1  0  0  0  0  0  0
  142.9250  139.7270  150.9340 O   0  0  0  0  0  0  0  0  0  0  0  0
  142.6340  139.2070  152.2270 C   0  0  0  0  0  1  0  0  0  0  0  0
  146.7070  141.8780  153.6330 C   0  0  0  0  0  2  0  0  0  0  0  0
  148.0260  141.3990  154.1960 C   0  0  0  0  0  0  0  0  0  0  0  0
  148.9020  142.1640  154.5760 O   0  0  0  0  0  0  0  0  0  0  0  0
  147.1850  139.1530  154.7220 C   0  0  0  0  0  3  0  0  0  0  0  0
  148.1930  139.9180  154.2870 C   0  0  0  0  0  3  0  0  0  0  0  0
  147.2750  137.6610  154.8480 C   0  0  0  0  0  2  0  0  0  0  0  0
  146.0890  136.9710  154.1740 C   0  0  0  0  0  2  0  0  0  0  0  0
  145.9620  137.4030  152.7140 C   0  0  0  0  0  2  0  0  0  0  0  0
  146.4630  135.8920  150.7660 C   0  0  0  0  0  1  0  0  0  0  0  0
  147.0560  136.7750  151.8520 C   0  0  0  0  0  2  0  0  0  0  0  0
  1 12  1  0  0  0  0
  2  7  1  0  0  0  0
  2  1  1  0  0  0  0
  3  2  2  0  0  0  0
  4  5  2  0  0  0  0
  4  3  1  0  0  0  0
  5  6  1  0  0  0  0
  6 10  1  0  0  0  0
  6  7  2  0  0  0  0
  8  5  1  0  0  0  0
  9  8  1  0  0  0  0
 10 11  1  0  0  0  0
 12 13  1  0  0  0  0
 13 16  1  0  0  0  0
 13 14  2  0  0  0  0
 15 17  1  0  0  0  0
 16 15  2  0  0  0  0
 18 17  1  0  0  0  0
 19 18  1  0  0  0  0
 20 21  1  0  0  0  0
 21 19  1  0  0  0  0
M  END
>  <MODEL>
4

>  <REMARK>
 VINA RESULT:    -5.833      2.373      3.967
 INTER + INTRA:         -10.469
 INTER:                  -8.547
 INTRA:                  -1.922
 UNBOUND:                -1.225
  Name = CHEMBL3884622
  13 active torsions:
  status: ('A' for Active; 'I' for Inactive)
    1  A    between atoms: C_1  and  C_2
    2  A    between atoms: C_2  and  C_3
    3  A    between atoms: C_3  and  C_4
    4  A    between atoms: C_4  and  C_5
    5  A    between atoms: C_5  and  C_6
    6  A    between atoms: C_7  and  C_8
    7  A    between atoms: C_8  and  C_10
    8  A    between atoms: C_10  and  C_11
    9  A    between atoms: C_11  and  C_12
   10  A    between atoms: C_15  and  O_16
   11  A    between atoms: O_16  and  C_17
   12  A    between atoms: C_18  and  O_19
   13  A    between atoms: O_19  and  C_20
                            x       y       z     vdW  Elec       q    Type
                         _______ _______ _______ _____ _____    ______ ____

>  <TORSDO>
F 10

>  <SCORE>
-5.833

>  <RMSD_LB>
2.373

>  <RMSD_UB>
3.967

$$$$
CHEMBL3884622
 OpenBabel10172500333D

 21 21  0  0  0  0  0  0  0  0999 V2000
  136.3540  136.5260  152.1750 C   0  0  0  0  0  2  0  0  0  0  0  0
  137.6910  137.1200  152.5360 C   0  0  0  0  0  0  0  0  0  0  0  0
  138.6590  137.3240  151.5530 C   0  0  0  0  0  3  0  0  0  0  0  0
  139.8790  137.9260  151.8780 C   0  0  0  0  0  3  0  0  0  0  0  0
  140.1520  138.3440  153.1880 C   0  0  0  0  0  0  0  0  0  0  0  0
  139.1700  138.1550  154.1780 C   0  0  0  0  0  0  0  0  0  0  0  0
  137.9730  137.5010  153.8530 C   0  0  0  0  0  3  0  0  0  0  0  0
  141.3370  138.9140  153.5650 O   0  0  0  0  0  0  0  0  0  0  0  0
  142.4350  138.0620  153.8600 C   0  0  0  0  0  1  0  0  0  0  0  0
  139.2310  138.5360  155.4970 O   0  0  0  0  0  0  0  0  0  0  0  0
  139.6800  137.5610  156.4330 C   0  0  0  0  0  1  0  0  0  0  0  0
  135.7450  135.7770  153.3520 C   0  0  0  0  0  2  0  0  0  0  0  0
  134.5080  135.0170  152.9310 C   0  0  0  0  0  0  0  0  0  0  0  0
  133.5710  134.8030  153.6870 O   0  0  0  0  0  0  0  0  0  0  0  0
  133.6060  133.6200  151.1250 C   0  0  0  0  0  3  0  0  0  0  0  0
  134.4820  134.5540  151.5110 C   0  0  0  0  0  3  0  0  0  0  0  0
  133.5210  133.0970  149.7210 C   0  0  0  0  0  2  0  0  0  0  0  0
  134.0620  134.1120  148.7140 C   0  0  0  0  0  2  0  0  0  0  0  0
  132.9220  134.8200  147.9840 C   0  0  0  0  0  2  0  0  0  0  0  0
  132.6490  136.9170  149.3460 C   0  0  0  0  0  1  0  0  0  0  0  0
  133.0990  136.3370  148.0150 C   0  0  0  0  0  2  0  0  0  0  0  0
  1  2  1  0  0  0  0
  1 12  1  0  0  0  0
  2  7  1  0  0  0  0
  3  4  1  0  0  0  0
  3  2  2  0  0  0  0
  4  5  2  0  0  0  0
  5  8  1  0  0  0  0
  5  6  1  0  0  0  0
  6 10  1  0  0  0  0
  7  6  2  0  0  0  0
  8  9  1  0  0  0  0
 10 11  1  0  0  0  0
 13 12  1  0  0  0  0
 13 14  2  0  0  0  0
 15 16  2  0  0  0  0
 16 13  1  0  0  0  0
 17 15  1  0  0  0  0
 18 17  1  0  0  0  0
 19 21  1  0  0  0  0
 19 18  1  0  0  0  0
 21 20  1  0  0  0  0
M  END
>  <MODEL>
5

>  <REMARK>
 VINA RESULT:    -5.658      6.261     11.476
 INTER + INTRA:         -10.191
 INTER:                  -9.132
 INTRA:                  -1.059
 UNBOUND:                -1.225
  Name = CHEMBL3884622
  13 active torsions:
  status: ('A' for Active; 'I' for Inactive)
    1  A    between atoms: C_1  and  C_2
    2  A    between atoms: C_2  and  C_3
    3  A    between atoms: C_3  and  C_4
    4  A    between atoms: C_4  and  C_5
    5  A    between atoms: C_5  and  C_6
    6  A    between atoms: C_7  and  C_8
    7  A    between atoms: C_8  and  C_10
    8  A    between atoms: C_10  and  C_11
    9  A    between atoms: C_11  and  C_12
   10  A    between atoms: C_15  and  O_16
   11  A    between atoms: O_16  and  C_17
   12  A    between atoms: C_18  and  O_19
   13  A    between atoms: O_19  and  C_20
                            x       y       z     vdW  Elec       q    Type
                         _______ _______ _______ _____ _____    ______ ____

>  <TORSDO>
F 10

>  <SCORE>
-5.658

>  <RMSD_LB>
6.261

>  <RMSD_UB>
11.476

$$$$
CHEMBL3884622
 OpenBabel10172500333D

 21 21  0  0  0  0  0  0  0  0999 V2000
  136.7460  134.4450  148.0170 C   0  0  0  0  0  2  0  0  0  0  0  0
  136.0270  134.9280  149.2490 C   0  0  0  0  0  0  0  0  0  0  0  0
  136.6570  134.8880  150.4940 C   0  0  0  0  0  3  0  0  0  0  0  0
  136.0120  135.3870  151.6280 C   0  0  0  0  0  3  0  0  0  0  0  0
  134.7280  135.9460  151.5430 C   0  0  0  0  0  0  0  0  0  0  0  0
  134.0970  136.0050  150.2860 C   0  0  0  0  0  0  0  0  0  0  0  0
  134.7310  135.4500  149.1650 C   0  0  0  0  0  3  0  0  0  0  0  0
  134.0420  136.4250  152.6250 O   0  0  0  0  0  0  0  0  0  0  0  0
  133.9880  135.6290  153.8000 C   0  0  0  0  0  1  0  0  0  0  0  0
  132.8710  136.5510  149.9940 O   0  0  0  0  0  0  0  0  0  0  0  0
  132.6750  137.0340  148.6690 C   0  0  0  0  0  1  0  0  0  0  0  0
  135.7630  133.9670  146.9560 C   0  0  0  0  0  2  0  0  0  0  0  0
  135.7120  132.4570  146.9040 C   0  0  0  0  0  0  0  0  0  0  0  0
  135.0900  131.7860  147.7160 O   0  0  0  0  0  0  0  0  0  0  0  0
  136.3310  132.3000  144.5340 C   0  0  0  0  0  3  0  0  0  0  0  0
  136.4560  131.8200  145.7760 C   0  0  0  0  0  3  0  0  0  0  0  0
  137.0370  131.7150  143.3470 C   0  0  0  0  0  2  0  0  0  0  0  0
  137.7120  132.7990  142.5070 C   0  0  0  0  0  2  0  0  0  0  0  0
  137.0660  134.1620  142.7510 C   0  0  0  0  0  2  0  0  0  0  0  0
  138.5280  135.3050  144.4510 C   0  0  0  0  0  1  0  0  0  0  0  0
  138.1210  135.2420  142.9870 C   0  0  0  0  0  2  0  0  0  0  0  0
  1  2  1  0  0  0  0
  2  3  1  0  0  0  0
  3  4  2  0  0  0  0
  5  4  1  0  0  0  0
  5  8  1  0  0  0  0
  6  5  2  0  0  0  0
  7  2  2  0  0  0  0
  7  6  1  0  0  0  0
  8  9  1  0  0  0  0
 10  6  1  0  0  0  0
 11 10  1  0  0  0  0
 12  1  1  0  0  0  0
 13 12  1  0  0  0  0
 13 14  2  0  0  0  0
 15 16  2  0  0  0  0
 16 13  1  0  0  0  0
 17 15  1  0  0  0  0
 18 19  1  0  0  0  0
 18 17  1  0  0  0  0
 19 21  1  0  0  0  0
 21 20  1  0  0  0  0
M  END
>  <MODEL>
6

>  <REMARK>
 VINA RESULT:    -5.653     10.837     13.092
 INTER + INTRA:         -10.182
 INTER:                  -9.013
 INTRA:                  -1.169
 UNBOUND:                -1.225
  Name = CHEMBL3884622
  13 active torsions:
  status: ('A' for Active; 'I' for Inactive)
    1  A    between atoms: C_1  and  C_2
    2  A    between atoms: C_2  and  C_3
    3  A    between atoms: C_3  and  C_4
    4  A    between atoms: C_4  and  C_5
    5  A    between atoms: C_5  and  C_6
    6  A    between atoms: C_7  and  C_8
    7  A    between atoms: C_8  and  C_10
    8  A    between atoms: C_10  and  C_11
    9  A    between atoms: C_11  and  C_12
   10  A    between atoms: C_15  and  O_16
   11  A    between atoms: O_16  and  C_17
   12  A    between atoms: C_18  and  O_19
   13  A    between atoms: O_19  and  C_20
                            x       y       z     vdW  Elec       q    Type
                         _______ _______ _______ _____ _____    ______ ____

>  <TORSDO>
F 10

>  <SCORE>
-5.653

>  <RMSD_LB>
10.837

>  <RMSD_UB>
13.092

$$$$
CHEMBL3884622
 OpenBabel10172500333D

 21 21  0  0  0  0  0  0  0  0999 V2000
  142.5420  137.9070  154.0340 C   0  0  0  0  0  2  0  0  0  0  0  0
  141.2730  137.8310  153.2270 C   0  0  0  0  0  0  0  0  0  0  0  0
  140.0510  138.1870  153.8000 C   0  0  0  0  0  3  0  0  0  0  0  0
  138.8810  138.1700  153.0360 C   0  0  0  0  0  3  0  0  0  0  0  0
  138.9070  137.8070  151.6820 C   0  0  0  0  0  0  0  0  0  0  0  0
  140.1400  137.4640  151.0960 C   0  0  0  0  0  0  0  0  0  0  0  0
  141.2980  137.4300  151.8860 C   0  0  0  0  0  3  0  0  0  0  0  0
  137.7880  137.7480  150.8960 O   0  0  0  0  0  0  0  0  0  0  0  0
  137.1380  136.4960  150.7350 C   0  0  0  0  0  1  0  0  0  0  0  0
  140.3750  137.1260  149.7850 O   0  0  0  0  0  0  0  0  0  0  0  0
  140.7930  138.1700  148.9120 C   0  0  0  0  0  1  0  0  0  0  0  0
  143.7470  137.4730  153.2100 C   0  0  0  0  0  2  0  0  0  0  0  0
  144.9290  138.3840  153.4560 C   0  0  0  0  0  0  0  0  0  0  0  0
  145.9480  138.0100  154.0200 O   0  0  0  0  0  0  0  0  0  0  0  0
  145.1520  140.0740  151.6900 C   0  0  0  0  0  3  0  0  0  0  0  0
  144.7900  139.7800  152.9440 C   0  0  0  0  0  3  0  0  0  0  0  0
  145.0510  141.4500  151.1020 C   0  0  0  0  0  2  0  0  0  0  0  0
  146.1470  142.3690  151.6410 C   0  0  0  0  0  2  0  0  0  0  0  0
  147.5210  141.9410  151.1300 C   0  0  0  0  0  2  0  0  0  0  0  0
  147.9180  141.8260  153.6120 C   0  0  0  0  0  1  0  0  0  0  0  0
  148.5650  141.9790  152.2450 C   0  0  0  0  0  2  0  0  0  0  0  0
  2  3  1  0  0  0  0
  2  1  1  0  0  0  0
  4  3  2  0  0  0  0
  5  4  1  0  0  0  0
  6  5  2  0  0  0  0
  6  7  1  0  0  0  0
  7  2  2  0  0  0  0
  8  5  1  0  0  0  0
  9  8  1  0  0  0  0
 10  6  1  0  0  0  0
 11 10  1  0  0  0  0
 12 13  1  0  0  0  0
 12  1  1  0  0  0  0
 13 14  2  0  0  0  0
 15 16  2  0  0  0  0
 16 13  1  0  0  0  0
 17 18  1  0  0  0  0
 17 15  1  0  0  0  0
 19 18  1  0  0  0  0
 19 21  1  0  0  0  0
 21 20  1  0  0  0  0
M  END
>  <MODEL>
7

>  <REMARK>
 VINA RESULT:    -5.645      2.396      4.823
 INTER + INTRA:         -10.171
 INTER:                  -9.084
 INTRA:                  -1.086
 UNBOUND:                -1.225
  Name = CHEMBL3884622
  13 active torsions:
  status: ('A' for Active; 'I' for Inactive)
    1  A    between atoms: C_1  and  C_2
    2  A    between atoms: C_2  and  C_3
    3  A    between atoms: C_3  and  C_4
    4  A    between atoms: C_4  and  C_5
    5  A    between atoms: C_5  and  C_6
    6  A    between atoms: C_7  and  C_8
    7  A    between atoms: C_8  and  C_10
    8  A    between atoms: C_10  and  C_11
    9  A    between atoms: C_11  and  C_12
   10  A    between atoms: C_15  and  O_16
   11  A    between atoms: O_16  and  C_17
   12  A    between atoms: C_18  and  O_19
   13  A    between atoms: O_19  and  C_20
                            x       y       z     vdW  Elec       q    Type
                         _______ _______ _______ _____ _____    ______ ____

>  <TORSDO>
F 10

>  <SCORE>
-5.645

>  <RMSD_LB>
2.396

>  <RMSD_UB>
4.823

$$$$
CHEMBL3884622
 OpenBabel10172500333D

 21 21  0  0  0  0  0  0  0  0999 V2000
  147.9130  138.2760  154.1880 C   0  0  0  0  0  2  0  0  0  0  0  0
  146.7170  137.8810  153.3620 C   0  0  0  0  0  0  0  0  0  0  0  0
  146.8870  137.3670  152.0760 C   0  0  0  0  0  3  0  0  0  0  0  0
  145.7810  136.9480  151.3300 C   0  0  0  0  0  3  0  0  0  0  0  0
  144.4840  137.0260  151.8570 C   0  0  0  0  0  0  0  0  0  0  0  0
  144.3100  137.5270  153.1600 C   0  0  0  0  0  0  0  0  0  0  0  0
  145.4200  137.9950  153.8770 C   0  0  0  0  0  3  0  0  0  0  0  0
  143.3660  136.6540  151.1610 O   0  0  0  0  0  0  0  0  0  0  0  0
  143.3470  136.8500  149.7540 C   0  0  0  0  0  1  0  0  0  0  0  0
  143.1340  137.6380  153.8610 O   0  0  0  0  0  0  0  0  0  0  0  0
  142.5430  138.9310  153.9360 C   0  0  0  0  0  1  0  0  0  0  0  0
  148.8520  139.1820  153.4030 C   0  0  0  0  0  2  0  0  0  0  0  0
  148.6190  140.6350  153.7490 C   0  0  0  0  0  0  0  0  0  0  0  0
  148.9800  141.1310  154.8070 O   0  0  0  0  0  0  0  0  0  0  0  0
  148.5920  141.8100  151.5930 C   0  0  0  0  0  3  0  0  0  0  0  0
  147.9340  141.4510  152.7010 C   0  0  0  0  0  3  0  0  0  0  0  0
  147.9800  142.6330  150.4990 C   0  0  0  0  0  2  0  0  0  0  0  0
  146.4560  142.5060  150.4910 C   0  0  0  0  0  2  0  0  0  0  0  0
  145.9970  141.4850  149.4520 C   0  0  0  0  0  2  0  0  0  0  0  0
  144.2450  140.6310  151.0430 C   0  0  0  0  0  1  0  0  0  0  0  0
  145.3890  140.2510  150.1160 C   0  0  0  0  0  2  0  0  0  0  0  0
  2  7  1  0  0  0  0
  2  1  1  0  0  0  0
  3  2  2  0  0  0  0
  4  5  2  0  0  0  0
  4  3  1  0  0  0  0
  5  6  1  0  0  0  0
  6 10  1  0  0  0  0
  6  7  2  0  0  0  0
  8  5  1  0  0  0  0
  9  8  1  0  0  0  0
 10 11  1  0  0  0  0
 12 13  1  0  0  0  0
 12  1  1  0  0  0  0
 13 14  2  0  0  0  0
 15 16  2  0  0  0  0
 16 13  1  0  0  0  0
 17 15  1  0  0  0  0
 18 17  1  0  0  0  0
 19 21  1  0  0  0  0
 19 18  1  0  0  0  0
 21 20  1  0  0  0  0
M  END
>  <MODEL>
8

>  <REMARK>
 VINA RESULT:    -5.586      2.048      4.203
 INTER + INTRA:         -10.076
 INTER:                  -8.208
 INTRA:                  -1.868
 UNBOUND:                -1.225
  Name = CHEMBL3884622
  13 active torsions:
  status: ('A' for Active; 'I' for Inactive)
    1  A    between atoms: C_1  and  C_2
    2  A    between atoms: C_2  and  C_3
    3  A    between atoms: C_3  and  C_4
    4  A    between atoms: C_4  and  C_5
    5  A    between atoms: C_5  and  C_6
    6  A    between atoms: C_7  and  C_8
    7  A    between atoms: C_8  and  C_10
    8  A    between atoms: C_10  and  C_11
    9  A    between atoms: C_11  and  C_12
   10  A    between atoms: C_15  and  O_16
   11  A    between atoms: O_16  and  C_17
   12  A    between atoms: C_18  and  O_19
   13  A    between atoms: O_19  and  C_20
                            x       y       z     vdW  Elec       q    Type
                         _______ _______ _______ _____ _____    ______ ____

>  <TORSDO>
F 10

>  <SCORE>
-5.586

>  <RMSD_LB>
2.048

>  <RMSD_UB>
4.203

$$$$
CHEMBL3884622
 OpenBabel10172500333D

 21 21  0  0  0  0  0  0  0  0999 V2000
  143.6110  137.3890  153.8320 C   0  0  0  0  0  2  0  0  0  0  0  0
  142.5580  137.4900  152.7590 C   0  0  0  0  0  0  0  0  0  0  0  0
  142.8760  137.2020  151.4320 C   0  0  0  0  0  3  0  0  0  0  0  0
  141.8880  137.2410  150.4440 C   0  0  0  0  0  3  0  0  0  0  0  0
  140.5600  137.5580  150.7630 C   0  0  0  0  0  0  0  0  0  0  0  0
  140.2320  137.8300  152.1040 C   0  0  0  0  0  0  0  0  0  0  0  0
  141.2420  137.8430  153.0770 C   0  0  0  0  0  3  0  0  0  0  0  0
  139.5600  137.6350  149.8320 O   0  0  0  0  0  0  0  0  0  0  0  0
  138.9380  136.4310  149.4050 C   0  0  0  0  0  1  0  0  0  0  0  0
  138.9890  138.1130  152.6180 O   0  0  0  0  0  0  0  0  0  0  0  0
  138.9410  138.9040  153.8010 C   0  0  0  0  0  1  0  0  0  0  0  0
  144.9610  137.8820  153.3300 C   0  0  0  0  0  2  0  0  0  0  0  0
  145.4340  139.0770  154.1280 C   0  0  0  0  0  0  0  0  0  0  0  0
  145.7790  138.9980  155.2980 O   0  0  0  0  0  0  0  0  0  0  0  0
  145.1020  140.4310  152.1070 C   0  0  0  0  0  3  0  0  0  0  0  0
  145.4780  140.3750  153.3890 C   0  0  0  0  0  3  0  0  0  0  0  0
  145.1240  141.6910  151.2940 C   0  0  0  0  0  2  0  0  0  0  0  0
  146.1990  141.6360  150.2080 C   0  0  0  0  0  2  0  0  0  0  0  0
  147.2680  142.7010  150.4410 C   0  0  0  0  0  2  0  0  0  0  0  0
  148.5260  141.9970  152.5030 C   0  0  0  0  0  1  0  0  0  0  0  0
  148.5560  142.0840  150.9860 C   0  0  0  0  0  2  0  0  0  0  0  0
  2  7  1  0  0  0  0
  2  1  1  0  0  0  0
  3  2  2  0  0  0  0
  4  5  2  0  0  0  0
  4  3  1  0  0  0  0
  5  6  1  0  0  0  0
  6 10  1  0  0  0  0
  6  7  2  0  0  0  0
  8  5  1  0  0  0  0
  9  8  1  0  0  0  0
 10 11  1  0  0  0  0
 12  1  1  0  0  0  0
 12 13  1  0  0  0  0
 13 14  2  0  0  0  0
 15 16  2  0  0  0  0
 16 13  1  0  0  0  0
 17 15  1  0  0  0  0
 18 19  1  0  0  0  0
 18 17  1  0  0  0  0
 19 21  1  0  0  0  0
 21 20  1  0  0  0  0
M  END
>  <MODEL>
9

>  <REMARK>
 VINA RESULT:    -5.573      2.388      4.505
 INTER + INTRA:         -10.057
 INTER:                  -8.832
 INTRA:                  -1.225
 UNBOUND:                -1.225
  Name = CHEMBL3884622
  13 active torsions:
  status: ('A' for Active; 'I' for Inactive)
    1  A    between atoms: C_1  and  C_2
    2  A    between atoms: C_2  and  C_3
    3  A    between atoms: C_3  and  C_4
    4  A    between atoms: C_4  and  C_5
    5  A    between atoms: C_5  and  C_6
    6  A    between atoms: C_7  and  C_8
    7  A    between atoms: C_8  and  C_10
    8  A    between atoms: C_10  and  C_11
    9  A    between atoms: C_11  and  C_12
   10  A    between atoms: C_15  and  O_16
   11  A    between atoms: O_16  and  C_17
   12  A    between atoms: C_18  and  O_19
   13  A    between atoms: O_19  and  C_20
                            x       y       z     vdW  Elec       q    Type
                         _______ _______ _______ _____ _____    ______ ____

>  <TORSDO>
F 10

>  <SCORE>
-5.573

>  <RMSD_LB>
2.388

>  <RMSD_UB>
4.505

$$$$
