CHEMBL4208159
 OpenBabel10172500443D

 30 31  0  0  1  0  0  0  0  0999 V2000
  134.3370  135.7780  152.8070 C   0  0  1  0  0  3  0  0  0  0  0  0
  135.8520  135.3780  152.6610 C   0  0  1  0  0  3  0  0  0  0  0  0
  136.0970  133.9810  152.0720 C   0  0  0  0  0  1  0  0  0  0  0  0
  136.6790  136.3830  151.8160 C   0  0  0  0  0  2  0  0  0  0  0  0
  137.6180  137.2630  152.6020 C   0  0  0  0  0  0  0  0  0  0  0  0
  138.6860  137.9070  151.9700 C   0  0  0  0  0  3  0  0  0  0  0  0
  139.5500  138.7210  152.7030 C   0  0  0  0  0  3  0  0  0  0  0  0
  139.3610  138.8970  154.0790 C   0  0  0  0  0  0  0  0  0  0  0  0
  138.3200  138.2360  154.7370 C   0  0  0  0  0  0  0  0  0  0  0  0
  137.4590  137.4240  153.9860 C   0  0  0  0  0  3  0  0  0  0  0  0
  140.2190  139.7280  154.7440 O   0  0  0  0  0  0  0  0  0  0  0  0
  140.8180  140.2650  154.2640 H   0  0  0  0  0  0  0  0  0  0  0  0
  137.9980  138.2610  156.0680 O   0  0  0  0  0  0  0  0  0  0  0  0
  138.8030  137.5130  156.9660 C   0  0  0  0  0  1  0  0  0  0  0  0
  133.4030  134.8720  151.9690 C   0  0  0  0  0  2  0  0  0  0  0  0
  133.1080  134.5500  148.1870 C   0  0  0  0  0  0  0  0  0  0  0  0
  133.2240  134.2550  149.5470 C   0  0  0  0  0  3  0  0  0  0  0  0
  133.1120  135.2570  150.5320 C   0  0  0  0  0  0  0  0  0  0  0  0
  132.8630  136.5720  150.1220 C   0  0  0  0  0  3  0  0  0  0  0  0
  132.7110  136.8750  148.7660 C   0  0  0  0  0  3  0  0  0  0  0  0
  132.8420  135.8720  147.8090 C   0  0  0  0  0  0  0  0  0  0  0  0
  134.5820  133.2720  146.8140 C   0  0  0  0  0  1  0  0  0  0  0  0
  133.2570  133.6420  147.1710 O   0  0  0  0  0  0  0  0  0  0  0  0
  132.7320  136.1790  146.4790 O   0  0  0  0  0  0  0  0  0  0  0  0
  131.8980  136.1320  146.0550 H   0  0  0  0  0  0  0  0  0  0  0  0
  133.8920  135.8520  154.2860 C   0  0  0  0  0  2  0  0  0  0  0  0
  134.1970  134.6390  154.9910 O   0  0  0  0  0  0  0  0  0  0  0  0
  134.3420  134.7370  156.3410 C   0  0  0  0  0  0  0  0  0  0  0  0
  135.6480  135.3960  156.6790 C   0  0  0  0  0  1  0  0  0  0  0  0
  133.5140  134.4110  157.1780 O   0  0  0  0  0  0  0  0  0  0  0  0
  1 15  1  6  0  0  0
  1 26  1  0  0  0  0
  2  3  1  6  0  0  0
  2  1  1  0  0  0  0
  4  5  1  0  0  0  0
  4  2  1  0  0  0  0
  5 10  1  0  0  0  0
  6  5  2  0  0  0  0
  6  7  1  0  0  0  0
  7  8  2  0  0  0  0
  8  9  1  0  0  0  0
  8 11  1  0  0  0  0
  9 13  1  0  0  0  0
 10  9  2  0  0  0  0
 12 11  1  0  0  0  0
 13 14  1  0  0  0  0
 16 17  1  0  0  0  0
 17 18  2  0  0  0  0
 18 15  1  0  0  0  0
 19 18  1  0  0  0  0
 20 19  2  0  0  0  0
 21 16  2  0  0  0  0
 21 20  1  0  0  0  0
 22 23  1  0  0  0  0
 23 16  1  0  0  0  0
 24 21  1  0  0  0  0
 25 24  1  0  0  0  0
 26 27  1  0  0  0  0
 27 28  1  0  0  0  0
 28 29  1  0  0  0  0
 28 30  2  0  0  0  0
M  END
>  <MODEL>
1

>  <REMARK>
 VINA RESULT:    -7.601      0.000      0.000
 INTER + INTRA:         -14.828
 INTER:                 -13.076
 INTRA:                  -1.753
 UNBOUND:                -2.339
  Name = CHEMBL4208159
  16 active torsions:
  status: ('A' for Active; 'I' for Inactive)
    1  A    between atoms: C_1  and  O_2
    2  A    between atoms: O_2  and  C_3
    3  A    between atoms: C_5  and  C_6
    4  A    between atoms: C_6  and  C_7
    5  A    between atoms: C_7  and  C_8
    6  A    between atoms: C_7  and  C_13
    7  A    between atoms: C_8  and  O_9
    8  A    between atoms: O_9  and  C_10
    9  A    between atoms: C_10  and  C_11
   10  A    between atoms: C_13  and  C_14
   11  A    between atoms: C_13  and  C_15
   12  A    between atoms: C_15  and  C_16
   13  A    between atoms: C_19  and  O_20
   14  A    between atoms: C_21  and  O_22
   15  A    between atoms: O_22  and  C_23
   16  A    between atoms: C_27  and  O_28
                            x       y       z     vdW  Elec       q    Type
                         _______ _______ _______ _____ _____    ______ ____

>  <TORSDO>
F 12

>  <SCORE>
-7.601

>  <RMSD_LB>
0.000

>  <RMSD_UB>
0.000

$$$$
CHEMBL4208159
 OpenBabel10172500443D

 30 31  0  0  1  0  0  0  0  0999 V2000
  136.1880  135.2150  152.9450 C   0  0  1  0  0  3  0  0  0  0  0  0
  134.9630  134.2550  152.7100 C   0  0  1  0  0  3  0  0  0  0  0  0
  134.3320  133.6890  153.9890 C   0  0  0  0  0  1  0  0  0  0  0  0
  133.8210  134.9000  151.8810 C   0  0  0  0  0  2  0  0  0  0  0  0
  133.7440  134.4630  150.4410 C   0  0  0  0  0  0  0  0  0  0  0  0
  133.8000  133.1070  150.1040 C   0  0  0  0  0  3  0  0  0  0  0  0
  133.7270  132.7100  148.7690 C   0  0  0  0  0  3  0  0  0  0  0  0
  133.6060  133.6630  147.7520 C   0  0  0  0  0  0  0  0  0  0  0  0
  133.5830  135.0260  148.0620 C   0  0  0  0  0  0  0  0  0  0  0  0
  133.6540  135.4090  149.4090 C   0  0  0  0  0  3  0  0  0  0  0  0
  133.5110  133.2190  146.4630 O   0  0  0  0  0  0  0  0  0  0  0  0
  133.8260  133.7510  145.7590 H   0  0  0  0  0  0  0  0  0  0  0  0
  133.5010  136.0950  147.2110 O   0  0  0  0  0  0  0  0  0  0  0  0
  132.3330  136.9010  147.2580 C   0  0  0  0  0  1  0  0  0  0  0  0
  136.1840  136.4260  151.9830 C   0  0  0  0  0  2  0  0  0  0  0  0
  139.1230  137.9750  150.1240 C   0  0  0  0  0  0  0  0  0  0  0  0
  138.1470  137.6970  151.0840 C   0  0  0  0  0  3  0  0  0  0  0  0
  137.3140  136.5650  150.9810 C   0  0  0  0  0  0  0  0  0  0  0  0
  137.4910  135.7000  149.8950 C   0  0  0  0  0  3  0  0  0  0  0  0
  138.4860  135.9490  148.9460 C   0  0  0  0  0  3  0  0  0  0  0  0
  139.2880  137.0830  149.0580 C   0  0  0  0  0  0  0  0  0  0  0  0
  139.3390  140.3260  150.4650 C   0  0  0  0  0  1  0  0  0  0  0  0
  139.9330  139.0810  150.1260 O   0  0  0  0  0  0  0  0  0  0  0  0
  140.2360  137.3450  148.1060 O   0  0  0  0  0  0  0  0  0  0  0  0
  140.0620  137.1510  147.2060 H   0  0  0  0  0  0  0  0  0  0  0  0
  136.3100  135.6540  154.4240 C   0  0  0  0  0  2  0  0  0  0  0  0
  136.2100  137.0790  154.5610 O   0  0  0  0  0  0  0  0  0  0  0  0
  136.9250  137.6460  155.5710 C   0  0  0  0  0  0  0  0  0  0  0  0
  137.7240  136.6030  156.2960 C   0  0  0  0  0  1  0  0  0  0  0  0
  136.9830  138.8400  155.8270 O   0  0  0  0  0  0  0  0  0  0  0  0
  1 15  1  6  0  0  0
  1 26  1  0  0  0  0
  2  1  1  0  0  0  0
  2  3  1  1  0  0  0
  4  2  1  0  0  0  0
  5  4  1  0  0  0  0
  6  5  1  0  0  0  0
  7  6  2  0  0  0  0
  8  9  2  0  0  0  0
  8  7  1  0  0  0  0
  9 10  1  0  0  0  0
 10  5  2  0  0  0  0
 11  8  1  0  0  0  0
 12 11  1  0  0  0  0
 13 14  1  0  0  0  0
 13  9  1  0  0  0  0
 16 23  1  0  0  0  0
 16 17  1  0  0  0  0
 18 17  2  0  0  0  0
 18 15  1  0  0  0  0
 19 18  1  0  0  0  0
 20 21  1  0  0  0  0
 20 19  2  0  0  0  0
 21 16  2  0  0  0  0
 23 22  1  0  0  0  0
 24 21  1  0  0  0  0
 25 24  1  0  0  0  0
 26 27  1  0  0  0  0
 27 28  1  0  0  0  0
 28 30  2  0  0  0  0
 28 29  1  0  0  0  0
M  END
>  <MODEL>
2

>  <REMARK>
 VINA RESULT:    -6.985      2.302      6.868
 INTER + INTRA:         -13.815
 INTER:                 -11.884
 INTRA:                  -1.930
 UNBOUND:                -2.339
  Name = CHEMBL4208159
  16 active torsions:
  status: ('A' for Active; 'I' for Inactive)
    1  A    between atoms: C_1  and  O_2
    2  A    between atoms: O_2  and  C_3
    3  A    between atoms: C_5  and  C_6
    4  A    between atoms: C_6  and  C_7
    5  A    between atoms: C_7  and  C_8
    6  A    between atoms: C_7  and  C_13
    7  A    between atoms: C_8  and  O_9
    8  A    between atoms: O_9  and  C_10
    9  A    between atoms: C_10  and  C_11
   10  A    between atoms: C_13  and  C_14
   11  A    between atoms: C_13  and  C_15
   12  A    between atoms: C_15  and  C_16
   13  A    between atoms: C_19  and  O_20
   14  A    between atoms: C_21  and  O_22
   15  A    between atoms: O_22  and  C_23
   16  A    between atoms: C_27  and  O_28
                            x       y       z     vdW  Elec       q    Type
                         _______ _______ _______ _____ _____    ______ ____

>  <TORSDO>
F 12

>  <SCORE>
-6.985

>  <RMSD_LB>
2.302

>  <RMSD_UB>
6.868

$$$$
CHEMBL4208159
 OpenBabel10172500443D

 30 31  0  0  1  0  0  0  0  0999 V2000
  143.7060  139.3170  152.2450 C   0  0  1  0  0  3  0  0  0  0  0  0
  144.4810  139.9890  151.0520 C   0  0  1  0  0  3  0  0  0  0  0  0
  143.7500  139.9460  149.7030 C   0  0  0  0  0  1  0  0  0  0  0  0
  144.8660  141.4680  151.3170 C   0  0  0  0  0  2  0  0  0  0  0  0
  146.3220  141.7080  151.6280 C   0  0  0  0  0  0  0  0  0  0  0  0
  147.1820  142.2250  150.6550 C   0  0  0  0  0  3  0  0  0  0  0  0
  148.5270  142.4460  150.9500 C   0  0  0  0  0  3  0  0  0  0  0  0
  149.0320  142.1450  152.2200 C   0  0  0  0  0  0  0  0  0  0  0  0
  148.1990  141.5960  153.1990 C   0  0  0  0  0  0  0  0  0  0  0  0
  146.8480  141.3840  152.8870 C   0  0  0  0  0  3  0  0  0  0  0  0
  150.3520  142.4070  152.4660 O   0  0  0  0  0  0  0  0  0  0  0  0
  150.7760  142.0220  153.2070 H   0  0  0  0  0  0  0  0  0  0  0  0
  148.5140  141.2150  154.4750 O   0  0  0  0  0  0  0  0  0  0  0  0
  148.4630  139.8330  154.7940 C   0  0  0  0  0  1  0  0  0  0  0  0
  142.7560  138.1910  151.7740 C   0  0  0  0  0  2  0  0  0  0  0  0
  139.8150  138.3300  154.1870 C   0  0  0  0  0  0  0  0  0  0  0  0
  141.0910  138.4400  153.6290 C   0  0  0  0  0  3  0  0  0  0  0  0
  141.3200  138.1980  152.2590 C   0  0  0  0  0  0  0  0  0  0  0  0
  140.2310  137.8550  151.4500 C   0  0  0  0  0  3  0  0  0  0  0  0
  138.9450  137.7740  151.9890 C   0  0  0  0  0  3  0  0  0  0  0  0
  138.7430  138.0020  153.3490 C   0  0  0  0  0  0  0  0  0  0  0  0
  140.1170  137.5920  156.4350 C   0  0  0  0  0  1  0  0  0  0  0  0
  139.5230  138.4970  155.5160 O   0  0  0  0  0  0  0  0  0  0  0  0
  137.4880  137.8840  153.8810 O   0  0  0  0  0  0  0  0  0  0  0  0
  136.9130  137.2070  153.5810 H   0  0  0  0  0  0  0  0  0  0  0  0
  144.6600  138.8360  153.3640 C   0  0  0  0  0  2  0  0  0  0  0  0
  144.9910  137.4470  153.2140 O   0  0  0  0  0  0  0  0  0  0  0  0
  146.3020  137.1110  153.3680 C   0  0  0  0  0  0  0  0  0  0  0  0
  147.0940  137.5350  152.1660 C   0  0  0  0  0  1  0  0  0  0  0  0
  146.8010  136.6040  154.3610 O   0  0  0  0  0  0  0  0  0  0  0  0
  1 15  1  6  0  0  0
  1 26  1  0  0  0  0
  2  3  1  6  0  0  0
  2  4  1  0  0  0  0
  2  1  1  0  0  0  0
  4  5  1  0  0  0  0
  5 10  1  0  0  0  0
  6  7  1  0  0  0  0
  6  5  2  0  0  0  0
  7  8  2  0  0  0  0
  8 11  1  0  0  0  0
  8  9  1  0  0  0  0
  9 13  1  0  0  0  0
 10  9  2  0  0  0  0
 11 12  1  0  0  0  0
 13 14  1  0  0  0  0
 15 18  1  0  0  0  0
 16 23  1  0  0  0  0
 17 16  1  0  0  0  0
 18 17  2  0  0  0  0
 19 20  2  0  0  0  0
 19 18  1  0  0  0  0
 20 21  1  0  0  0  0
 21 24  1  0  0  0  0
 21 16  2  0  0  0  0
 23 22  1  0  0  0  0
 25 24  1  0  0  0  0
 27 26  1  0  0  0  0
 27 28  1  0  0  0  0
 28 30  2  0  0  0  0
 29 28  1  0  0  0  0
M  END
>  <MODEL>
3

>  <REMARK>
 VINA RESULT:    -6.925      6.287     10.351
 INTER + INTRA:         -13.717
 INTER:                 -12.116
 INTRA:                  -1.601
 UNBOUND:                -2.339
  Name = CHEMBL4208159
  16 active torsions:
  status: ('A' for Active; 'I' for Inactive)
    1  A    between atoms: C_1  and  O_2
    2  A    between atoms: O_2  and  C_3
    3  A    between atoms: C_5  and  C_6
    4  A    between atoms: C_6  and  C_7
    5  A    between atoms: C_7  and  C_8
    6  A    between atoms: C_7  and  C_13
    7  A    between atoms: C_8  and  O_9
    8  A    between atoms: O_9  and  C_10
    9  A    between atoms: C_10  and  C_11
   10  A    between atoms: C_13  and  C_14
   11  A    between atoms: C_13  and  C_15
   12  A    between atoms: C_15  and  C_16
   13  A    between atoms: C_19  and  O_20
   14  A    between atoms: C_21  and  O_22
   15  A    between atoms: O_22  and  C_23
   16  A    between atoms: C_27  and  O_28
                            x       y       z     vdW  Elec       q    Type
                         _______ _______ _______ _____ _____    ______ ____

>  <TORSDO>
F 12

>  <SCORE>
-6.925

>  <RMSD_LB>
6.287

>  <RMSD_UB>
10.351

$$$$
CHEMBL4208159
 OpenBabel10172500443D

 30 31  0  0  1  0  0  0  0  0999 V2000
  135.3430  135.0950  152.3450 C   0  0  1  0  0  3  0  0  0  0  0  0
  135.2120  135.7410  153.7730 C   0  0  1  0  0  3  0  0  0  0  0  0
  133.7890  135.7510  154.3480 C   0  0  0  0  0  1  0  0  0  0  0  0
  136.1310  135.0840  154.8370 C   0  0  0  0  0  2  0  0  0  0  0  0
  136.5400  135.9830  155.9770 C   0  0  0  0  0  0  0  0  0  0  0  0
  137.2740  137.1480  155.7360 C   0  0  0  0  0  3  0  0  0  0  0  0
  137.6490  137.9750  156.7950 C   0  0  0  0  0  3  0  0  0  0  0  0
  137.3010  137.6440  158.1100 C   0  0  0  0  0  0  0  0  0  0  0  0
  136.5970  136.4660  158.3770 C   0  0  0  0  0  0  0  0  0  0  0  0
  136.2250  135.6480  157.3010 C   0  0  0  0  0  3  0  0  0  0  0  0
  137.6680  138.5040  159.1080 O   0  0  0  0  0  0  0  0  0  0  0  0
  138.1480  138.1860  159.8470 H   0  0  0  0  0  0  0  0  0  0  0  0
  136.1970  135.9660  159.5870 O   0  0  0  0  0  0  0  0  0  0  0  0
  136.4260  134.5900  159.8530 C   0  0  0  0  0  1  0  0  0  0  0  0
  133.9670  134.8150  151.6940 C   0  0  0  0  0  2  0  0  0  0  0  0
  133.3970  134.8500  147.9300 C   0  0  0  0  0  0  0  0  0  0  0  0
  133.5920  135.2470  149.2550 C   0  0  0  0  0  3  0  0  0  0  0  0
  133.9260  134.3190  150.2620 C   0  0  0  0  0  0  0  0  0  0  0  0
  134.0770  132.9740  149.9070 C   0  0  0  0  0  3  0  0  0  0  0  0
  133.9170  132.5690  148.5800 C   0  0  0  0  0  3  0  0  0  0  0  0
  133.5710  133.5000  147.6030 C   0  0  0  0  0  0  0  0  0  0  0  0
  132.4140  136.9180  147.2610 C   0  0  0  0  0  1  0  0  0  0  0  0
  133.0190  135.6820  146.9080 O   0  0  0  0  0  0  0  0  0  0  0  0
  133.3770  133.0930  146.3110 O   0  0  0  0  0  0  0  0  0  0  0  0
  133.1050  133.7100  145.6610 H   0  0  0  0  0  0  0  0  0  0  0  0
  136.2640  135.9180  151.4130 C   0  0  0  0  0  2  0  0  0  0  0  0
  137.0100  136.9020  152.1440 O   0  0  0  0  0  0  0  0  0  0  0  0
  138.1270  137.3940  151.5420 C   0  0  0  0  0  0  0  0  0  0  0  0
  139.0440  138.0060  152.5600 C   0  0  0  0  0  1  0  0  0  0  0  0
  138.4040  137.2980  150.3550 O   0  0  0  0  0  0  0  0  0  0  0  0
  1 26  1  6  0  0  0
  1  2  1  0  0  0  0
  2  3  1  1  0  0  0
  2  4  1  0  0  0  0
  4  5  1  0  0  0  0
  5 10  1  0  0  0  0
  6  5  2  0  0  0  0
  6  7  1  0  0  0  0
  7  8  2  0  0  0  0
  8  9  1  0  0  0  0
  8 11  1  0  0  0  0
  9 13  1  0  0  0  0
 10  9  2  0  0  0  0
 11 12  1  0  0  0  0
 13 14  1  0  0  0  0
 15  1  1  0  0  0  0
 16 17  1  0  0  0  0
 17 18  2  0  0  0  0
 18 15  1  0  0  0  0
 19 18  1  0  0  0  0
 20 19  2  0  0  0  0
 21 16  2  0  0  0  0
 21 20  1  0  0  0  0
 23 22  1  0  0  0  0
 23 16  1  0  0  0  0
 24 21  1  0  0  0  0
 25 24  1  0  0  0  0
 26 27  1  0  0  0  0
 28 27  1  0  0  0  0
 28 29  1  0  0  0  0
 30 28  2  0  0  0  0
M  END
>  <MODEL>
4

>  <REMARK>
 VINA RESULT:    -6.810      2.074      4.131
 INTER + INTRA:         -13.528
 INTER:                 -12.258
 INTRA:                  -1.270
 UNBOUND:                -2.339
  Name = CHEMBL4208159
  16 active torsions:
  status: ('A' for Active; 'I' for Inactive)
    1  A    between atoms: C_1  and  O_2
    2  A    between atoms: O_2  and  C_3
    3  A    between atoms: C_5  and  C_6
    4  A    between atoms: C_6  and  C_7
    5  A    between atoms: C_7  and  C_8
    6  A    between atoms: C_7  and  C_13
    7  A    between atoms: C_8  and  O_9
    8  A    between atoms: O_9  and  C_10
    9  A    between atoms: C_10  and  C_11
   10  A    between atoms: C_13  and  C_14
   11  A    between atoms: C_13  and  C_15
   12  A    between atoms: C_15  and  C_16
   13  A    between atoms: C_19  and  O_20
   14  A    between atoms: C_21  and  O_22
   15  A    between atoms: O_22  and  C_23
   16  A    between atoms: C_27  and  O_28
                            x       y       z     vdW  Elec       q    Type
                         _______ _______ _______ _____ _____    ______ ____

>  <TORSDO>
F 12

>  <SCORE>
-6.810

>  <RMSD_LB>
2.074

>  <RMSD_UB>
4.131

$$$$
CHEMBL4208159
 OpenBabel10172500443D

 30 31  0  0  1  0  0  0  0  0999 V2000
  144.7220  139.0750  150.6620 C   0  0  1  0  0  3  0  0  0  0  0  0
  143.7500  137.9490  150.1450 C   0  0  1  0  0  3  0  0  0  0  0  0
  144.3120  137.0860  149.0070 C   0  0  0  0  0  1  0  0  0  0  0  0
  143.2720  136.9830  151.2600 C   0  0  0  0  0  2  0  0  0  0  0  0
  142.2640  137.5590  152.2220 C   0  0  0  0  0  0  0  0  0  0  0  0
  142.6550  137.9800  153.4960 C   0  0  0  0  0  3  0  0  0  0  0  0
  141.7170  138.5130  154.3800 C   0  0  0  0  0  3  0  0  0  0  0  0
  140.3730  138.6240  154.0050 C   0  0  0  0  0  0  0  0  0  0  0  0
  139.9530  138.1780  152.7490 C   0  0  0  0  0  0  0  0  0  0  0  0
  140.9090  137.6480  151.8710 C   0  0  0  0  0  3  0  0  0  0  0  0
  139.5010  139.1800  154.8990 O   0  0  0  0  0  0  0  0  0  0  0  0
  139.6580  140.0410  155.2340 H   0  0  0  0  0  0  0  0  0  0  0  0
  138.6910  138.1780  152.2210 O   0  0  0  0  0  0  0  0  0  0  0  0
  138.5120  137.6640  150.9100 C   0  0  0  0  0  1  0  0  0  0  0  0
  146.1100  138.5200  151.0600 C   0  0  0  0  0  2  0  0  0  0  0  0
  147.9410  139.6020  154.2180 C   0  0  0  0  0  0  0  0  0  0  0  0
  147.4060  139.5740  152.9280 C   0  0  0  0  0  3  0  0  0  0  0  0
  146.5190  138.5570  152.5200 C   0  0  0  0  0  0  0  0  0  0  0  0
  146.1640  137.5690  153.4450 C   0  0  0  0  0  3  0  0  0  0  0  0
  146.6660  137.6050  154.7480 C   0  0  0  0  0  3  0  0  0  0  0  0
  147.5540  138.6090  155.1260 C   0  0  0  0  0  0  0  0  0  0  0  0
  148.6860  141.8680  154.2380 C   0  0  0  0  0  1  0  0  0  0  0  0
  148.8470  140.5250  154.6710 O   0  0  0  0  0  0  0  0  0  0  0  0
  148.0740  138.6190  156.3920 O   0  0  0  0  0  0  0  0  0  0  0  0
  147.7310  138.0400  157.0440 H   0  0  0  0  0  0  0  0  0  0  0  0
  144.8350  140.2520  149.6650 C   0  0  0  0  0  2  0  0  0  0  0  0
  146.1260  140.8750  149.7290 O   0  0  0  0  0  0  0  0  0  0  0  0
  146.2190  142.0140  150.4700 C   0  0  0  0  0  0  0  0  0  0  0  0
  147.6210  142.5460  150.4360 C   0  0  0  0  0  1  0  0  0  0  0  0
  145.2940  142.5820  151.0310 O   0  0  0  0  0  0  0  0  0  0  0  0
  1 26  1  6  0  0  0
  1 15  1  0  0  0  0
  2  3  1  6  0  0  0
  2  1  1  0  0  0  0
  2  4  1  0  0  0  0
  4  5  1  0  0  0  0
  5  6  1  0  0  0  0
  6  7  2  0  0  0  0
  8  7  1  0  0  0  0
  8 11  1  0  0  0  0
  9  8  2  0  0  0  0
 10  5  2  0  0  0  0
 10  9  1  0  0  0  0
 11 12  1  0  0  0  0
 13  9  1  0  0  0  0
 14 13  1  0  0  0  0
 15 18  1  0  0  0  0
 16 23  1  0  0  0  0
 16 21  1  0  0  0  0
 17 16  2  0  0  0  0
 18 17  1  0  0  0  0
 18 19  2  0  0  0  0
 19 20  1  0  0  0  0
 20 21  2  0  0  0  0
 21 24  1  0  0  0  0
 22 23  1  0  0  0  0
 24 25  1  0  0  0  0
 26 27  1  0  0  0  0
 27 28  1  0  0  0  0
 28 30  2  0  0  0  0
 29 28  1  0  0  0  0
M  END
>  <MODEL>
5

>  <REMARK>
 VINA RESULT:    -6.765      6.233     12.149
 INTER + INTRA:         -13.455
 INTER:                 -11.396
 INTRA:                  -2.059
 UNBOUND:                -2.339
  Name = CHEMBL4208159
  16 active torsions:
  status: ('A' for Active; 'I' for Inactive)
    1  A    between atoms: C_1  and  O_2
    2  A    between atoms: O_2  and  C_3
    3  A    between atoms: C_5  and  C_6
    4  A    between atoms: C_6  and  C_7
    5  A    between atoms: C_7  and  C_8
    6  A    between atoms: C_7  and  C_13
    7  A    between atoms: C_8  and  O_9
    8  A    between atoms: O_9  and  C_10
    9  A    between atoms: C_10  and  C_11
   10  A    between atoms: C_13  and  C_14
   11  A    between atoms: C_13  and  C_15
   12  A    between atoms: C_15  and  C_16
   13  A    between atoms: C_19  and  O_20
   14  A    between atoms: C_21  and  O_22
   15  A    between atoms: O_22  and  C_23
   16  A    between atoms: C_27  and  O_28
                            x       y       z     vdW  Elec       q    Type
                         _______ _______ _______ _____ _____    ______ ____

>  <TORSDO>
F 12

>  <SCORE>
-6.765

>  <RMSD_LB>
6.233

>  <RMSD_UB>
12.149

$$$$
CHEMBL4208159
 OpenBabel10172500443D

 30 31  0  0  1  0  0  0  0  0999 V2000
  136.3890  135.8960  151.3580 C   0  0  1  0  0  3  0  0  0  0  0  0
  137.7520  136.4750  150.8260 C   0  0  1  0  0  3  0  0  0  0  0  0
  137.8230  136.6630  149.3040 C   0  0  0  0  0  1  0  0  0  0  0  0
  138.1450  137.8300  151.4740 C   0  0  0  0  0  2  0  0  0  0  0  0
  139.4530  137.8290  152.2240 C   0  0  0  0  0  0  0  0  0  0  0  0
  139.5020  138.2060  153.5690 C   0  0  0  0  0  3  0  0  0  0  0  0
  140.7160  138.2020  154.2570 C   0  0  0  0  0  3  0  0  0  0  0  0
  141.8970  137.8270  153.6070 C   0  0  0  0  0  0  0  0  0  0  0  0
  141.8770  137.4780  152.2540 C   0  0  0  0  0  0  0  0  0  0  0  0
  140.6490  137.4850  151.5780 C   0  0  0  0  0  3  0  0  0  0  0  0
  143.0540  137.8130  154.3350 O   0  0  0  0  0  0  0  0  0  0  0  0
  143.4630  136.9970  154.5500 H   0  0  0  0  0  0  0  0  0  0  0  0
  142.9230  137.1160  151.4490 O   0  0  0  0  0  0  0  0  0  0  0  0
  143.7180  138.1440  150.8780 C   0  0  0  0  0  1  0  0  0  0  0  0
  136.1740  134.4200  150.9490 C   0  0  0  0  0  2  0  0  0  0  0  0
  134.1570  133.9260  147.7580 C   0  0  0  0  0  0  0  0  0  0  0  0
  135.2110  134.0950  148.6590 C   0  0  0  0  0  3  0  0  0  0  0  0
  135.0010  134.0750  150.0520 C   0  0  0  0  0  0  0  0  0  0  0  0
  133.7020  133.8650  150.5290 C   0  0  0  0  0  3  0  0  0  0  0  0
  132.6440  133.6620  149.6390 C   0  0  0  0  0  3  0  0  0  0  0  0
  132.8720  133.7010  148.2650 C   0  0  0  0  0  0  0  0  0  0  0  0
  135.3420  133.2640  145.7960 C   0  0  0  0  0  1  0  0  0  0  0  0
  134.2730  133.9850  146.3930 O   0  0  0  0  0  0  0  0  0  0  0  0
  131.8270  133.5400  147.3960 O   0  0  0  0  0  0  0  0  0  0  0  0
  131.9460  133.0510  146.6060 H   0  0  0  0  0  0  0  0  0  0  0  0
  136.2220  136.1020  152.8820 C   0  0  0  0  0  2  0  0  0  0  0  0
  135.8590  134.8800  153.5430 O   0  0  0  0  0  0  0  0  0  0  0  0
  134.7630  134.9240  154.3490 C   0  0  0  0  0  0  0  0  0  0  0  0
  135.1570  135.3000  155.7470 C   0  0  0  0  0  1  0  0  0  0  0  0
  133.6040  134.7590  153.9950 O   0  0  0  0  0  0  0  0  0  0  0  0
  1 15  1  1  0  0  0
  1 26  1  0  0  0  0
  2  3  1  6  0  0  0
  2  1  1  0  0  0  0
  2  4  1  0  0  0  0
  4  5  1  0  0  0  0
  5  6  1  0  0  0  0
  6  7  2  0  0  0  0
  8  7  1  0  0  0  0
  8 11  1  0  0  0  0
  9  8  2  0  0  0  0
 10  5  2  0  0  0  0
 10  9  1  0  0  0  0
 11 12  1  0  0  0  0
 13  9  1  0  0  0  0
 14 13  1  0  0  0  0
 16 21  2  0  0  0  0
 16 17  1  0  0  0  0
 17 18  2  0  0  0  0
 18 19  1  0  0  0  0
 18 15  1  0  0  0  0
 20 19  2  0  0  0  0
 21 20  1  0  0  0  0
 22 23  1  0  0  0  0
 23 16  1  0  0  0  0
 24 21  1  0  0  0  0
 25 24  1  0  0  0  0
 26 27  1  0  0  0  0
 27 28  1  0  0  0  0
 28 29  1  0  0  0  0
 30 28  2  0  0  0  0
M  END
>  <MODEL>
6

>  <REMARK>
 VINA RESULT:    -6.650      2.068      3.252
 INTER + INTRA:         -13.265
 INTER:                 -11.837
 INTRA:                  -1.428
 UNBOUND:                -2.339
  Name = CHEMBL4208159
  16 active torsions:
  status: ('A' for Active; 'I' for Inactive)
    1  A    between atoms: C_1  and  O_2
    2  A    between atoms: O_2  and  C_3
    3  A    between atoms: C_5  and  C_6
    4  A    between atoms: C_6  and  C_7
    5  A    between atoms: C_7  and  C_8
    6  A    between atoms: C_7  and  C_13
    7  A    between atoms: C_8  and  O_9
    8  A    between atoms: O_9  and  C_10
    9  A    between atoms: C_10  and  C_11
   10  A    between atoms: C_13  and  C_14
   11  A    between atoms: C_13  and  C_15
   12  A    between atoms: C_15  and  C_16
   13  A    between atoms: C_19  and  O_20
   14  A    between atoms: C_21  and  O_22
   15  A    between atoms: O_22  and  C_23
   16  A    between atoms: C_27  and  O_28
                            x       y       z     vdW  Elec       q    Type
                         _______ _______ _______ _____ _____    ______ ____

>  <TORSDO>
F 12

>  <SCORE>
-6.650

>  <RMSD_LB>
2.068

>  <RMSD_UB>
3.252

$$$$
CHEMBL4208159
 OpenBabel10172500443D

 30 31  0  0  1  0  0  0  0  0999 V2000
  139.7340  137.5750  151.8330 C   0  0  1  0  0  3  0  0  0  0  0  0
  138.3240  137.7710  151.1610 C   0  0  1  0  0  3  0  0  0  0  0  0
  138.2860  138.8130  150.0350 C   0  0  0  0  0  1  0  0  0  0  0  0
  137.7220  136.4590  150.5910 C   0  0  0  0  0  2  0  0  0  0  0  0
  136.5770  135.8800  151.3830 C   0  0  0  0  0  0  0  0  0  0  0  0
  136.3730  136.2520  152.7150 C   0  0  0  0  0  3  0  0  0  0  0  0
  135.3100  135.7130  153.4410 C   0  0  0  0  0  3  0  0  0  0  0  0
  134.4430  134.7890  152.8470 C   0  0  0  0  0  0  0  0  0  0  0  0
  134.6470  134.3780  151.5280 C   0  0  0  0  0  0  0  0  0  0  0  0
  135.7180  134.9310  150.8100 C   0  0  0  0  0  3  0  0  0  0  0  0
  133.4010  134.3140  153.5940 O   0  0  0  0  0  0  0  0  0  0  0  0
  133.5650  133.7350  154.3120 H   0  0  0  0  0  0  0  0  0  0  0  0
  133.9300  133.4720  150.7940 O   0  0  0  0  0  0  0  0  0  0  0  0
  132.8170  133.9430  150.0490 C   0  0  0  0  0  1  0  0  0  0  0  0
  140.8830  138.1590  150.9770 C   0  0  0  0  0  2  0  0  0  0  0  0
  144.1440  139.8660  151.9500 C   0  0  0  0  0  0  0  0  0  0  0  0
  142.8390  139.6300  151.5090 C   0  0  0  0  0  3  0  0  0  0  0  0
  142.2410  138.3590  151.6200 C   0  0  0  0  0  0  0  0  0  0  0  0
  142.9790  137.3220  152.2010 C   0  0  0  0  0  3  0  0  0  0  0  0
  144.2720  137.5520  152.6770 C   0  0  0  0  0  3  0  0  0  0  0  0
  144.8500  138.8130  152.5430 C   0  0  0  0  0  0  0  0  0  0  0  0
  145.1750  141.4720  150.5200 C   0  0  0  0  0  1  0  0  0  0  0  0
  144.8110  141.0570  151.8290 O   0  0  0  0  0  0  0  0  0  0  0  0
  146.1320  139.0250  152.9750 O   0  0  0  0  0  0  0  0  0  0  0  0
  146.3640  138.8380  153.8630 H   0  0  0  0  0  0  0  0  0  0  0  0
  139.7680  138.1080  153.2840 C   0  0  0  0  0  2  0  0  0  0  0  0
  138.5240  138.7200  153.6520 O   0  0  0  0  0  0  0  0  0  0  0  0
  138.0980  138.5200  154.9290 C   0  0  0  0  0  0  0  0  0  0  0  0
  139.1500  137.8040  155.7240 C   0  0  0  0  0  1  0  0  0  0  0  0
  137.0470  138.9210  155.4070 O   0  0  0  0  0  0  0  0  0  0  0  0
  1 15  1  6  0  0  0
  1 26  1  0  0  0  0
  2  3  1  6  0  0  0
  2  1  1  0  0  0  0
  4  2  1  0  0  0  0
  4  5  1  0  0  0  0
  5  6  1  0  0  0  0
  6  7  2  0  0  0  0
  8  7  1  0  0  0  0
  8 11  1  0  0  0  0
  9  8  2  0  0  0  0
 10  5  2  0  0  0  0
 10  9  1  0  0  0  0
 11 12  1  0  0  0  0
 13  9  1  0  0  0  0
 14 13  1  0  0  0  0
 15 18  1  0  0  0  0
 16 21  1  0  0  0  0
 17 18  1  0  0  0  0
 17 16  2  0  0  0  0
 18 19  2  0  0  0  0
 19 20  1  0  0  0  0
 21 20  2  0  0  0  0
 21 24  1  0  0  0  0
 22 23  1  0  0  0  0
 23 16  1  0  0  0  0
 24 25  1  0  0  0  0
 26 27  1  0  0  0  0
 27 28  1  0  0  0  0
 28 30  2  0  0  0  0
 28 29  1  0  0  0  0
M  END
>  <MODEL>
7

>  <REMARK>
 VINA RESULT:    -6.506      3.123      8.750
 INTER + INTRA:         -13.028
 INTER:                 -11.637
 INTRA:                  -1.391
 UNBOUND:                -2.339
  Name = CHEMBL4208159
  16 active torsions:
  status: ('A' for Active; 'I' for Inactive)
    1  A    between atoms: C_1  and  O_2
    2  A    between atoms: O_2  and  C_3
    3  A    between atoms: C_5  and  C_6
    4  A    between atoms: C_6  and  C_7
    5  A    between atoms: C_7  and  C_8
    6  A    between atoms: C_7  and  C_13
    7  A    between atoms: C_8  and  O_9
    8  A    between atoms: O_9  and  C_10
    9  A    between atoms: C_10  and  C_11
   10  A    between atoms: C_13  and  C_14
   11  A    between atoms: C_13  and  C_15
   12  A    between atoms: C_15  and  C_16
   13  A    between atoms: C_19  and  O_20
   14  A    between atoms: C_21  and  O_22
   15  A    between atoms: O_22  and  C_23
   16  A    between atoms: C_27  and  O_28
                            x       y       z     vdW  Elec       q    Type
                         _______ _______ _______ _____ _____    ______ ____

>  <TORSDO>
F 12

>  <SCORE>
-6.506

>  <RMSD_LB>
3.123

>  <RMSD_UB>
8.750

$$$$
CHEMBL4208159
 OpenBabel10172500443D

 30 31  0  0  1  0  0  0  0  0999 V2000
  144.7870  138.1810  154.1740 C   0  0  1  0  0  3  0  0  0  0  0  0
  146.1260  137.6410  153.5460 C   0  0  1  0  0  3  0  0  0  0  0  0
  147.1850  137.2020  154.5660 C   0  0  0  0  0  1  0  0  0  0  0  0
  145.9160  136.4560  152.5650 C   0  0  0  0  0  2  0  0  0  0  0  0
  145.9090  136.8250  151.1030 C   0  0  0  0  0  0  0  0  0  0  0  0
  146.7680  137.8140  150.6140 C   0  0  0  0  0  3  0  0  0  0  0  0
  146.7560  138.1490  149.2600 C   0  0  0  0  0  3  0  0  0  0  0  0
  145.8800  137.5050  148.3790 C   0  0  0  0  0  0  0  0  0  0  0  0
  144.9890  136.5380  148.8510 C   0  0  0  0  0  0  0  0  0  0  0  0
  145.0150  136.2110  150.2150 C   0  0  0  0  0  3  0  0  0  0  0  0
  145.9300  137.8510  147.0570 O   0  0  0  0  0  0  0  0  0  0  0  0
  146.0520  138.7470  146.8110 H   0  0  0  0  0  0  0  0  0  0  0  0
  144.0480  135.8300  148.1540 O   0  0  0  0  0  0  0  0  0  0  0  0
  143.1100  135.0570  148.8880 C   0  0  0  0  0  1  0  0  0  0  0  0
  144.5980  139.6990  153.9420 C   0  0  0  0  0  2  0  0  0  0  0  0
  146.6010  141.6790  151.3800 C   0  0  0  0  0  0  0  0  0  0  0  0
  146.2190  140.9890  152.5340 C   0  0  0  0  0  3  0  0  0  0  0  0
  144.9980  140.2880  152.6040 C   0  0  0  0  0  0  0  0  0  0  0  0
  144.1660  140.2810  151.4780 C   0  0  0  0  0  3  0  0  0  0  0  0
  144.5520  140.9390  150.3080 C   0  0  0  0  0  3  0  0  0  0  0  0
  145.7560  141.6380  150.2650 C   0  0  0  0  0  0  0  0  0  0  0  0
  148.9210  141.9270  151.8750 C   0  0  0  0  0  1  0  0  0  0  0  0
  147.7440  142.4240  151.2540 O   0  0  0  0  0  0  0  0  0  0  0  0
  146.1120  142.3140  149.1300 O   0  0  0  0  0  0  0  0  0  0  0  0
  145.4920  142.8710  148.7020 H   0  0  0  0  0  0  0  0  0  0  0  0
  143.5550  137.3690  153.7100 C   0  0  0  0  0  2  0  0  0  0  0  0
  142.3300  138.0600  153.9960 O   0  0  0  0  0  0  0  0  0  0  0  0
  141.3310  137.9370  153.0790 C   0  0  0  0  0  0  0  0  0  0  0  0
  141.8690  137.3820  151.7920 C   0  0  0  0  0  1  0  0  0  0  0  0
  140.1470  138.1680  153.2710 O   0  0  0  0  0  0  0  0  0  0  0  0
  1 26  1  6  0  0  0
  2  1  1  0  0  0  0
  2  3  1  1  0  0  0
  4  2  1  0  0  0  0
  5  4  1  0  0  0  0
  6  5  1  0  0  0  0
  7  6  2  0  0  0  0
  8  9  2  0  0  0  0
  8  7  1  0  0  0  0
  9 10  1  0  0  0  0
 10  5  2  0  0  0  0
 11  8  1  0  0  0  0
 12 11  1  0  0  0  0
 13  9  1  0  0  0  0
 13 14  1  0  0  0  0
 15  1  1  0  0  0  0
 16 17  1  0  0  0  0
 17 18  2  0  0  0  0
 18 15  1  0  0  0  0
 19 18  1  0  0  0  0
 20 19  2  0  0  0  0
 21 20  1  0  0  0  0
 21 16  2  0  0  0  0
 23 16  1  0  0  0  0
 23 22  1  0  0  0  0
 24 21  1  0  0  0  0
 25 24  1  0  0  0  0
 26 27  1  0  0  0  0
 28 30  2  0  0  0  0
 28 27  1  0  0  0  0
 29 28  1  0  0  0  0
M  END
>  <MODEL>
8

>  <REMARK>
 VINA RESULT:    -6.438      7.255     11.486
 INTER + INTRA:         -12.916
 INTER:                  -9.802
 INTRA:                  -3.114
 UNBOUND:                -2.339
  Name = CHEMBL4208159
  16 active torsions:
  status: ('A' for Active; 'I' for Inactive)
    1  A    between atoms: C_1  and  O_2
    2  A    between atoms: O_2  and  C_3
    3  A    between atoms: C_5  and  C_6
    4  A    between atoms: C_6  and  C_7
    5  A    between atoms: C_7  and  C_8
    6  A    between atoms: C_7  and  C_13
    7  A    between atoms: C_8  and  O_9
    8  A    between atoms: O_9  and  C_10
    9  A    between atoms: C_10  and  C_11
   10  A    between atoms: C_13  and  C_14
   11  A    between atoms: C_13  and  C_15
   12  A    between atoms: C_15  and  C_16
   13  A    between atoms: C_19  and  O_20
   14  A    between atoms: C_21  and  O_22
   15  A    between atoms: O_22  and  C_23
   16  A    between atoms: C_27  and  O_28
                            x       y       z     vdW  Elec       q    Type
                         _______ _______ _______ _____ _____    ______ ____

>  <TORSDO>
F 12

>  <SCORE>
-6.438

>  <RMSD_LB>
7.255

>  <RMSD_UB>
11.486

$$$$
CHEMBL4208159
 OpenBabel10172500443D

 30 31  0  0  1  0  0  0  0  0999 V2000
  144.7800  138.4520  150.2660 C   0  0  1  0  0  3  0  0  0  0  0  0
  145.2800  139.1390  148.9420 C   0  0  1  0  0  3  0  0  0  0  0  0
  144.1910  139.8690  148.1430 C   0  0  0  0  0  1  0  0  0  0  0  0
  146.4370  140.1490  149.1660 C   0  0  0  0  0  2  0  0  0  0  0  0
  146.5210  140.7330  150.5540 C   0  0  0  0  0  0  0  0  0  0  0  0
  145.6940  141.7950  150.9300 C   0  0  0  0  0  3  0  0  0  0  0  0
  145.7760  142.3290  152.2160 C   0  0  0  0  0  3  0  0  0  0  0  0
  146.6930  141.8140  153.1400 C   0  0  0  0  0  0  0  0  0  0  0  0
  147.5540  140.7750  152.7750 C   0  0  0  0  0  0  0  0  0  0  0  0
  147.4560  140.2470  151.4790 C   0  0  0  0  0  3  0  0  0  0  0  0
  146.7130  142.3550  154.3950 O   0  0  0  0  0  0  0  0  0  0  0  0
  146.2770  141.9190  155.1010 H   0  0  0  0  0  0  0  0  0  0  0  0
  148.5250  140.1670  153.5230 O   0  0  0  0  0  0  0  0  0  0  0  0
  148.7030  138.7660  153.3810 C   0  0  0  0  0  1  0  0  0  0  0  0
  143.2730  138.6920  150.5230 C   0  0  0  0  0  2  0  0  0  0  0  0
  143.3750  139.2820  154.2830 C   0  0  0  0  0  0  0  0  0  0  0  0
  143.6910  139.2800  152.9230 C   0  0  0  0  0  3  0  0  0  0  0  0
  142.7870  138.7970  151.9560 C   0  0  0  0  0  0  0  0  0  0  0  0
  141.5400  138.3260  152.3830 C   0  0  0  0  0  3  0  0  0  0  0  0
  141.1980  138.3530  153.7370 C   0  0  0  0  0  3  0  0  0  0  0  0
  142.1140  138.8200  154.6780 C   0  0  0  0  0  0  0  0  0  0  0  0
  145.5230  139.1220  155.3080 C   0  0  0  0  0  1  0  0  0  0  0  0
  144.2190  139.6850  155.2850 O   0  0  0  0  0  0  0  0  0  0  0  0
  141.7900  138.8090  156.0080 O   0  0  0  0  0  0  0  0  0  0  0  0
  140.9430  139.0950  156.2860 H   0  0  0  0  0  0  0  0  0  0  0  0
  145.1410  136.9490  150.3160 C   0  0  0  0  0  2  0  0  0  0  0  0
  144.0020  136.1220  150.0380 O   0  0  0  0  0  0  0  0  0  0  0  0
  144.0770  135.3290  148.9350 C   0  0  0  0  0  0  0  0  0  0  0  0
  142.7200  134.7930  148.5820 C   0  0  0  0  0  1  0  0  0  0  0  0
  145.0790  135.1240  148.2650 O   0  0  0  0  0  0  0  0  0  0  0  0
  1 26  1  6  0  0  0
  1 15  1  0  0  0  0
  2  3  1  1  0  0  0
  2  4  1  0  0  0  0
  2  1  1  0  0  0  0
  4  5  1  0  0  0  0
  5  6  2  0  0  0  0
  5 10  1  0  0  0  0
  6  7  1  0  0  0  0
  7  8  2  0  0  0  0
  8 11  1  0  0  0  0
  9  8  1  0  0  0  0
  9 13  1  0  0  0  0
 10  9  2  0  0  0  0
 11 12  1  0  0  0  0
 14 13  1  0  0  0  0
 15 18  1  0  0  0  0
 16 21  1  0  0  0  0
 16 23  1  0  0  0  0
 17 16  2  0  0  0  0
 18 19  2  0  0  0  0
 18 17  1  0  0  0  0
 19 20  1  0  0  0  0
 20 21  2  0  0  0  0
 21 24  1  0  0  0  0
 23 22  1  0  0  0  0
 24 25  1  0  0  0  0
 27 26  1  0  0  0  0
 28 27  1  0  0  0  0
 29 28  1  0  0  0  0
 30 28  2  0  0  0  0
M  END
>  <MODEL>
9

>  <REMARK>
 VINA RESULT:    -6.305      7.470     11.135
 INTER + INTRA:         -12.698
 INTER:                 -10.359
 INTRA:                  -2.339
 UNBOUND:                -2.339
  Name = CHEMBL4208159
  16 active torsions:
  status: ('A' for Active; 'I' for Inactive)
    1  A    between atoms: C_1  and  O_2
    2  A    between atoms: O_2  and  C_3
    3  A    between atoms: C_5  and  C_6
    4  A    between atoms: C_6  and  C_7
    5  A    between atoms: C_7  and  C_8
    6  A    between atoms: C_7  and  C_13
    7  A    between atoms: C_8  and  O_9
    8  A    between atoms: O_9  and  C_10
    9  A    between atoms: C_10  and  C_11
   10  A    between atoms: C_13  and  C_14
   11  A    between atoms: C_13  and  C_15
   12  A    between atoms: C_15  and  C_16
   13  A    between atoms: C_19  and  O_20
   14  A    between atoms: C_21  and  O_22
   15  A    between atoms: O_22  and  C_23
   16  A    between atoms: C_27  and  O_28
                            x       y       z     vdW  Elec       q    Type
                         _______ _______ _______ _____ _____    ______ ____

>  <TORSDO>
F 12

>  <SCORE>
-6.305

>  <RMSD_LB>
7.470

>  <RMSD_UB>
11.135

$$$$
