CHEMBL80153
 OpenBabel10162523353D

 24 24  0  0  0  0  0  0  0  0999 V2000
  134.8390  135.9670  151.5610 N   0  0  0  0  0  0  0  0  0  0  0  0
  133.7920  135.3260  152.2040 C   0  0  0  0  0  0  0  0  0  0  0  0
  132.8070  134.9190  151.6120 O   0  0  0  0  0  0  0  0  0  0  0  0
  135.6090  136.3010  152.0750 H   0  0  0  0  0  0  0  0  0  0  0  0
  134.7860  136.1400  150.1240 C   0  0  0  0  0  2  0  0  0  0  0  0
  136.1660  136.2280  149.4920 C   0  0  0  0  0  2  0  0  0  0  0  0
  137.2440  136.2600  150.5720 C   0  0  0  0  0  2  0  0  0  0  0  0
  137.8680  137.6450  150.6680 C   0  0  0  0  0  2  0  0  0  0  0  0
  139.0380  137.6390  151.6420 C   0  0  0  0  0  2  0  0  0  0  0  0
  140.3120  137.1990  150.9340 C   0  0  0  0  0  2  0  0  0  0  0  0
  141.1820  137.8540  153.1790 C   0  0  0  0  0  1  0  0  0  0  0  0
  141.5400  137.6310  151.7220 C   0  0  0  0  0  2  0  0  0  0  0  0
  133.9510  135.2330  153.7120 C   0  0  0  0  0  2  0  0  0  0  0  0
  135.3690  134.7870  154.1020 C   0  0  0  0  0  2  0  0  0  0  0  0
  136.0670  135.7310  155.0640 C   0  0  0  0  0  0  0  0  0  0  0  0
  136.9700  136.6820  154.5750 C   0  0  0  0  0  3  0  0  0  0  0  0
  137.6280  137.5590  155.4360 C   0  0  0  0  0  3  0  0  0  0  0  0
  137.3910  137.5040  156.8040 C   0  0  0  0  0  0  0  0  0  0  0  0
  136.4860  136.5760  157.3350 C   0  0  0  0  0  0  0  0  0  0  0  0
  135.8270  135.6930  156.4520 C   0  0  0  0  0  3  0  0  0  0  0  0
  138.0720  138.3840  157.5990 O   0  0  0  0  0  0  0  0  0  0  0  0
  138.6790  138.0660  158.2380 H   0  0  0  0  0  0  0  0  0  0  0  0
  136.1620  136.4210  158.6640 O   0  0  0  0  0  0  0  0  0  0  0  0
  135.5230  135.1970  159.0240 C   0  0  0  0  0  1  0  0  0  0  0  0
  1  4  1  0  0  0  0
  1  2  1  0  0  0  0
  2 13  1  0  0  0  0
  3  2  2  0  0  0  0
  5  1  1  0  0  0  0
  6  5  1  0  0  0  0
  6  7  1  0  0  0  0
  7  8  1  0  0  0  0
  8  9  1  0  0  0  0
 10  9  1  0  0  0  0
 10 12  1  0  0  0  0
 12 11  1  0  0  0  0
 13 14  1  0  0  0  0
 14 15  1  0  0  0  0
 15 20  1  0  0  0  0
 16 15  2  0  0  0  0
 16 17  1  0  0  0  0
 17 18  2  0  0  0  0
 18 19  1  0  0  0  0
 18 21  1  0  0  0  0
 19 23  1  0  0  0  0
 20 19  2  0  0  0  0
 21 22  1  0  0  0  0
 23 24  1  0  0  0  0
M  END
>  <MODEL>
1

>  <REMARK>
 VINA RESULT:    -5.883      0.000      0.000
 INTER + INTRA:         -10.838
 INTER:                  -9.498
 INTRA:                  -1.340
 UNBOUND:                -1.000
  Name = CHEMBL80153
  14 active torsions:
  status: ('A' for Active; 'I' for Inactive)
    1  A    between atoms: C_1  and  C_2
    2  A    between atoms: C_2  and  C_3
    3  A    between atoms: C_3  and  C_4
    4  A    between atoms: C_4  and  C_5
    5  A    between atoms: C_5  and  C_6
    6  A    between atoms: C_6  and  C_7
    7  A    between atoms: C_7  and  C_8
    8  A    between atoms: C_8  and  N_9
    9  A    between atoms: C_10  and  C_12
   10  A    between atoms: C_12  and  C_13
   11  A    between atoms: C_13  and  C_14
   12  A    between atoms: C_17  and  O_18
   13  A    between atoms: C_19  and  O_20
   14  A    between atoms: O_20  and  C_21
                            x       y       z     vdW  Elec       q    Type
                         _______ _______ _______ _____ _____    ______ ____

>  <TORSDO>
F 12

>  <SCORE>
-5.883

>  <RMSD_LB>
0.000

>  <RMSD_UB>
0.000

$$$$
CHEMBL80153
 OpenBabel10162523353D

 24 24  0  0  0  0  0  0  0  0999 V2000
  137.6400  136.9800  151.6790 N   0  0  0  0  0  0  0  0  0  0  0  0
  136.7890  136.6210  152.7120 C   0  0  0  0  0  0  0  0  0  0  0  0
  136.8970  137.0720  153.8390 O   0  0  0  0  0  0  0  0  0  0  0  0
  137.5350  136.5790  150.7870 H   0  0  0  0  0  0  0  0  0  0  0  0
  138.6840  137.9530  151.9280 C   0  0  0  0  0  2  0  0  0  0  0  0
  138.9810  138.8190  150.7150 C   0  0  0  0  0  2  0  0  0  0  0  0
  137.9050  138.6280  149.6490 C   0  0  0  0  0  2  0  0  0  0  0  0
  138.5140  138.0870  148.3630 C   0  0  0  0  0  2  0  0  0  0  0  0
  138.0840  136.6440  148.1330 C   0  0  0  0  0  2  0  0  0  0  0  0
  139.1840  135.6890  148.5730 C   0  0  0  0  0  2  0  0  0  0  0  0
  137.7660  134.1250  147.2410 C   0  0  0  0  0  1  0  0  0  0  0  0
  138.7400  134.2430  148.3980 C   0  0  0  0  0  2  0  0  0  0  0  0
  135.7570  135.5720  152.3330 C   0  0  0  0  0  2  0  0  0  0  0  0
  136.1980  134.7680  151.1010 C   0  0  0  0  0  2  0  0  0  0  0  0
  135.0750  134.4820  150.1200 C   0  0  0  0  0  0  0  0  0  0  0  0
  134.3300  133.3030  150.2390 C   0  0  0  0  0  3  0  0  0  0  0  0
  133.2960  133.0130  149.3500 C   0  0  0  0  0  3  0  0  0  0  0  0
  132.9850  133.9000  148.3270 C   0  0  0  0  0  0  0  0  0  0  0  0
  133.6960  135.0980  148.1800 C   0  0  0  0  0  0  0  0  0  0  0  0
  134.7420  135.3790  149.0860 C   0  0  0  0  0  3  0  0  0  0  0  0
  131.9650  133.5580  147.4810 O   0  0  0  0  0  0  0  0  0  0  0  0
  131.2250  133.0860  147.8060 H   0  0  0  0  0  0  0  0  0  0  0  0
  133.4870  136.0580  147.2160 O   0  0  0  0  0  0  0  0  0  0  0  0
  132.7490  137.2120  147.6170 C   0  0  0  0  0  1  0  0  0  0  0  0
  1  5  1  0  0  0  0
  1  2  1  0  0  0  0
  2  3  2  0  0  0  0
  4  1  1  0  0  0  0
  6  5  1  0  0  0  0
  7  6  1  0  0  0  0
  8  7  1  0  0  0  0
  9  8  1  0  0  0  0
  9 10  1  0  0  0  0
 11 12  1  0  0  0  0
 12 10  1  0  0  0  0
 13  2  1  0  0  0  0
 14 13  1  0  0  0  0
 15 16  1  0  0  0  0
 15 14  1  0  0  0  0
 17 16  2  0  0  0  0
 18 17  1  0  0  0  0
 19 18  2  0  0  0  0
 19 20  1  0  0  0  0
 20 15  2  0  0  0  0
 21 22  1  0  0  0  0
 21 18  1  0  0  0  0
 23 24  1  0  0  0  0
 23 19  1  0  0  0  0
M  END
>  <MODEL>
2

>  <REMARK>
 VINA RESULT:    -5.824      3.246      6.954
 INTER + INTRA:         -10.740
 INTER:                  -8.843
 INTRA:                  -1.897
 UNBOUND:                -1.000
  Name = CHEMBL80153
  14 active torsions:
  status: ('A' for Active; 'I' for Inactive)
    1  A    between atoms: C_1  and  C_2
    2  A    between atoms: C_2  and  C_3
    3  A    between atoms: C_3  and  C_4
    4  A    between atoms: C_4  and  C_5
    5  A    between atoms: C_5  and  C_6
    6  A    between atoms: C_6  and  C_7
    7  A    between atoms: C_7  and  C_8
    8  A    between atoms: C_8  and  N_9
    9  A    between atoms: C_10  and  C_12
   10  A    between atoms: C_12  and  C_13
   11  A    between atoms: C_13  and  C_14
   12  A    between atoms: C_17  and  O_18
   13  A    between atoms: C_19  and  O_20
   14  A    between atoms: O_20  and  C_21
                            x       y       z     vdW  Elec       q    Type
                         _______ _______ _______ _____ _____    ______ ____

>  <TORSDO>
F 12

>  <SCORE>
-5.824

>  <RMSD_LB>
3.246

>  <RMSD_UB>
6.954

$$$$
CHEMBL80153
 OpenBabel10162523353D

 24 24  0  0  0  0  0  0  0  0999 V2000
  134.1170  135.8320  151.5390 N   0  0  0  0  0  0  0  0  0  0  0  0
  134.4740  134.6500  152.1680 C   0  0  0  0  0  0  0  0  0  0  0  0
  133.7520  133.6690  152.1840 O   0  0  0  0  0  0  0  0  0  0  0  0
  134.7180  136.6110  151.5650 H   0  0  0  0  0  0  0  0  0  0  0  0
  132.8470  135.9070  150.8450 C   0  0  0  0  0  2  0  0  0  0  0  0
  132.9580  136.5940  149.4930 C   0  0  0  0  0  2  0  0  0  0  0  0
  134.4100  136.6110  149.0220 C   0  0  0  0  0  2  0  0  0  0  0  0
  134.4820  136.5310  147.5040 C   0  0  0  0  0  2  0  0  0  0  0  0
  133.4180  135.5850  146.9660 C   0  0  0  0  0  2  0  0  0  0  0  0
  133.9680  134.1690  146.8720 C   0  0  0  0  0  2  0  0  0  0  0  0
  134.1200  132.6700  148.8620 C   0  0  0  0  0  1  0  0  0  0  0  0
  133.2010  133.2320  147.7950 C   0  0  0  0  0  2  0  0  0  0  0  0
  135.8130  134.7070  152.8850 C   0  0  0  0  0  2  0  0  0  0  0  0
  136.3820  136.1330  152.9020 C   0  0  0  0  0  2  0  0  0  0  0  0
  136.9490  136.5520  154.2480 C   0  0  0  0  0  0  0  0  0  0  0  0
  137.7560  137.6920  154.3390 C   0  0  0  0  0  3  0  0  0  0  0  0
  138.2930  138.0970  155.5600 C   0  0  0  0  0  3  0  0  0  0  0  0
  138.0280  137.3710  156.7150 C   0  0  0  0  0  0  0  0  0  0  0  0
  137.2140  136.2320  156.6710 C   0  0  0  0  0  0  0  0  0  0  0  0
  136.6780  135.8310  155.4270 C   0  0  0  0  0  3  0  0  0  0  0  0
  138.5880  137.8130  157.8820 O   0  0  0  0  0  0  0  0  0  0  0  0
  139.4520  138.1760  157.8790 H   0  0  0  0  0  0  0  0  0  0  0  0
  136.8740  135.4300  157.7370 O   0  0  0  0  0  0  0  0  0  0  0  0
  135.7020  135.8000  158.4620 C   0  0  0  0  0  1  0  0  0  0  0  0
  1  4  1  0  0  0  0
  1  2  1  0  0  0  0
  2  3  2  0  0  0  0
  2 13  1  0  0  0  0
  5  1  1  0  0  0  0
  6  5  1  0  0  0  0
  7  6  1  0  0  0  0
  8  7  1  0  0  0  0
  9  8  1  0  0  0  0
 10  9  1  0  0  0  0
 10 12  1  0  0  0  0
 12 11  1  0  0  0  0
 13 14  1  0  0  0  0
 14 15  1  0  0  0  0
 15 16  2  0  0  0  0
 15 20  1  0  0  0  0
 16 17  1  0  0  0  0
 17 18  2  0  0  0  0
 18 21  1  0  0  0  0
 19 18  1  0  0  0  0
 19 23  1  0  0  0  0
 20 19  2  0  0  0  0
 22 21  1  0  0  0  0
 23 24  1  0  0  0  0
M  END
>  <MODEL>
3

>  <REMARK>
 VINA RESULT:    -5.737      2.128      4.242
 INTER + INTRA:         -10.594
 INTER:                  -9.405
 INTRA:                  -1.189
 UNBOUND:                -1.000
  Name = CHEMBL80153
  14 active torsions:
  status: ('A' for Active; 'I' for Inactive)
    1  A    between atoms: C_1  and  C_2
    2  A    between atoms: C_2  and  C_3
    3  A    between atoms: C_3  and  C_4
    4  A    between atoms: C_4  and  C_5
    5  A    between atoms: C_5  and  C_6
    6  A    between atoms: C_6  and  C_7
    7  A    between atoms: C_7  and  C_8
    8  A    between atoms: C_8  and  N_9
    9  A    between atoms: C_10  and  C_12
   10  A    between atoms: C_12  and  C_13
   11  A    between atoms: C_13  and  C_14
   12  A    between atoms: C_17  and  O_18
   13  A    between atoms: C_19  and  O_20
   14  A    between atoms: O_20  and  C_21
                            x       y       z     vdW  Elec       q    Type
                         _______ _______ _______ _____ _____    ______ ____

>  <TORSDO>
F 12

>  <SCORE>
-5.737

>  <RMSD_LB>
2.128

>  <RMSD_UB>
4.242

$$$$
CHEMBL80153
 OpenBabel10162523353D

 24 24  0  0  0  0  0  0  0  0999 V2000
  143.2630  139.6490  152.3580 N   0  0  0  0  0  0  0  0  0  0  0  0
  142.9570  138.5800  153.1840 C   0  0  0  0  0  0  0  0  0  0  0  0
  143.8040  137.9820  153.8250 O   0  0  0  0  0  0  0  0  0  0  0  0
  142.5560  140.0960  151.8390 H   0  0  0  0  0  0  0  0  0  0  0  0
  144.6360  140.1020  152.2660 C   0  0  0  0  0  2  0  0  0  0  0  0
  144.8270  141.1880  151.2190 C   0  0  0  0  0  2  0  0  0  0  0  0
  145.7410  142.2880  151.7550 C   0  0  0  0  0  2  0  0  0  0  0  0
  147.0560  142.3140  150.9900 C   0  0  0  0  0  2  0  0  0  0  0  0
  148.2010  141.8410  151.8760 C   0  0  0  0  0  2  0  0  0  0  0  0
  147.8240  141.9800  153.3440 C   0  0  0  0  0  2  0  0  0  0  0  0
  148.4820  139.5850  153.5820 C   0  0  0  0  0  1  0  0  0  0  0  0
  148.5850  140.9700  154.1910 C   0  0  0  0  0  2  0  0  0  0  0  0
  141.4910  138.1830  153.1720 C   0  0  0  0  0  2  0  0  0  0  0  0
  141.0960  137.5310  151.8380 C   0  0  0  0  0  2  0  0  0  0  0  0
  139.9850  138.2610  151.1030 C   0  0  0  0  0  0  0  0  0  0  0  0
  140.1100  139.6280  150.8320 C   0  0  0  0  0  3  0  0  0  0  0  0
  139.1040  140.3240  150.1620 C   0  0  0  0  0  3  0  0  0  0  0  0
  137.9550  139.6620  149.7470 C   0  0  0  0  0  0  0  0  0  0  0  0
  137.7950  138.2910  149.9870 C   0  0  0  0  0  0  0  0  0  0  0  0
  138.8200  137.5990  150.6670 C   0  0  0  0  0  3  0  0  0  0  0  0
  137.0000  140.3990  149.1020 O   0  0  0  0  0  0  0  0  0  0  0  0
  136.8100  140.2330  148.2000 H   0  0  0  0  0  0  0  0  0  0  0  0
  136.7110  137.5220  149.6280 O   0  0  0  0  0  0  0  0  0  0  0  0
  136.6980  137.0280  148.2890 C   0  0  0  0  0  1  0  0  0  0  0  0
  1  2  1  0  0  0  0
  2  3  2  0  0  0  0
  4  1  1  0  0  0  0
  5  1  1  0  0  0  0
  6  7  1  0  0  0  0
  6  5  1  0  0  0  0
  8  7  1  0  0  0  0
  8  9  1  0  0  0  0
  9 10  1  0  0  0  0
 10 12  1  0  0  0  0
 11 12  1  0  0  0  0
 13  2  1  0  0  0  0
 14 13  1  0  0  0  0
 15 14  1  0  0  0  0
 16 15  1  0  0  0  0
 17 16  2  0  0  0  0
 18 19  2  0  0  0  0
 18 17  1  0  0  0  0
 19 20  1  0  0  0  0
 20 15  2  0  0  0  0
 21 18  1  0  0  0  0
 22 21  1  0  0  0  0
 23 19  1  0  0  0  0
 24 23  1  0  0  0  0
M  END
>  <MODEL>
4

>  <REMARK>
 VINA RESULT:    -5.735      5.336      8.845
 INTER + INTRA:         -10.591
 INTER:                  -9.726
 INTRA:                  -0.865
 UNBOUND:                -1.000
  Name = CHEMBL80153
  14 active torsions:
  status: ('A' for Active; 'I' for Inactive)
    1  A    between atoms: C_1  and  C_2
    2  A    between atoms: C_2  and  C_3
    3  A    between atoms: C_3  and  C_4
    4  A    between atoms: C_4  and  C_5
    5  A    between atoms: C_5  and  C_6
    6  A    between atoms: C_6  and  C_7
    7  A    between atoms: C_7  and  C_8
    8  A    between atoms: C_8  and  N_9
    9  A    between atoms: C_10  and  C_12
   10  A    between atoms: C_12  and  C_13
   11  A    between atoms: C_13  and  C_14
   12  A    between atoms: C_17  and  O_18
   13  A    between atoms: C_19  and  O_20
   14  A    between atoms: O_20  and  C_21
                            x       y       z     vdW  Elec       q    Type
                         _______ _______ _______ _____ _____    ______ ____

>  <TORSDO>
F 12

>  <SCORE>
-5.735

>  <RMSD_LB>
5.336

>  <RMSD_UB>
8.845

$$$$
CHEMBL80153
 OpenBabel10162523353D

 24 24  0  0  0  0  0  0  0  0999 V2000
  145.3760  140.1480  150.7330 N   0  0  0  0  0  0  0  0  0  0  0  0
  144.6240  139.4160  149.8290 C   0  0  0  0  0  0  0  0  0  0  0  0
  143.7250  139.9080  149.1710 O   0  0  0  0  0  0  0  0  0  0  0  0
  146.0810  139.7120  151.2630 H   0  0  0  0  0  0  0  0  0  0  0  0
  145.1130  141.5640  150.8890 C   0  0  0  0  0  2  0  0  0  0  0  0
  146.3110  142.3280  151.4300 C   0  0  0  0  0  2  0  0  0  0  0  0
  146.3840  142.1940  152.9490 C   0  0  0  0  0  2  0  0  0  0  0  0
  147.8200  141.9590  153.3980 C   0  0  0  0  0  2  0  0  0  0  0  0
  147.9620  140.5850  154.0380 C   0  0  0  0  0  2  0  0  0  0  0  0
  146.5920  140.0230  154.3940 C   0  0  0  0  0  2  0  0  0  0  0  0
  147.4340  137.6750  154.4950 C   0  0  0  0  0  1  0  0  0  0  0  0
  146.7310  138.7800  155.2620 C   0  0  0  0  0  2  0  0  0  0  0  0
  144.9750  137.9380  149.7800 C   0  0  0  0  0  2  0  0  0  0  0  0
  143.7600  137.0590  150.1130 C   0  0  0  0  0  2  0  0  0  0  0  0
  143.1880  137.3020  151.5000 C   0  0  0  0  0  0  0  0  0  0  0  0
  144.0430  137.3520  152.6060 C   0  0  0  0  0  3  0  0  0  0  0  0
  143.5450  137.5700  153.8900 C   0  0  0  0  0  3  0  0  0  0  0  0
  142.1820  137.7450  154.0900 C   0  0  0  0  0  0  0  0  0  0  0  0
  141.2920  137.7140  153.0080 C   0  0  0  0  0  0  0  0  0  0  0  0
  141.8090  137.4920  151.7130 C   0  0  0  0  0  3  0  0  0  0  0  0
  141.7510  137.9460  155.3730 O   0  0  0  0  0  0  0  0  0  0  0  0
  141.4450  137.2230  155.8830 H   0  0  0  0  0  0  0  0  0  0  0  0
  139.9260  137.8750  153.0710 O   0  0  0  0  0  0  0  0  0  0  0  0
  139.4500  139.2090  153.2510 C   0  0  0  0  0  1  0  0  0  0  0  0
  1  5  1  0  0  0  0
  1  4  1  0  0  0  0
  2  1  1  0  0  0  0
  3  2  2  0  0  0  0
  5  6  1  0  0  0  0
  6  7  1  0  0  0  0
  7  8  1  0  0  0  0
  8  9  1  0  0  0  0
  9 10  1  0  0  0  0
 10 12  1  0  0  0  0
 11 12  1  0  0  0  0
 13  2  1  0  0  0  0
 13 14  1  0  0  0  0
 14 15  1  0  0  0  0
 15 20  2  0  0  0  0
 15 16  1  0  0  0  0
 16 17  2  0  0  0  0
 17 18  1  0  0  0  0
 18 21  1  0  0  0  0
 19 23  1  0  0  0  0
 19 18  2  0  0  0  0
 20 19  1  0  0  0  0
 21 22  1  0  0  0  0
 23 24  1  0  0  0  0
M  END
>  <MODEL>
5

>  <REMARK>
 VINA RESULT:    -5.702      5.662      9.154
 INTER + INTRA:         -10.536
 INTER:                  -9.183
 INTRA:                  -1.352
 UNBOUND:                -1.000
  Name = CHEMBL80153
  14 active torsions:
  status: ('A' for Active; 'I' for Inactive)
    1  A    between atoms: C_1  and  C_2
    2  A    between atoms: C_2  and  C_3
    3  A    between atoms: C_3  and  C_4
    4  A    between atoms: C_4  and  C_5
    5  A    between atoms: C_5  and  C_6
    6  A    between atoms: C_6  and  C_7
    7  A    between atoms: C_7  and  C_8
    8  A    between atoms: C_8  and  N_9
    9  A    between atoms: C_10  and  C_12
   10  A    between atoms: C_12  and  C_13
   11  A    between atoms: C_13  and  C_14
   12  A    between atoms: C_17  and  O_18
   13  A    between atoms: C_19  and  O_20
   14  A    between atoms: O_20  and  C_21
                            x       y       z     vdW  Elec       q    Type
                         _______ _______ _______ _____ _____    ______ ____

>  <TORSDO>
F 12

>  <SCORE>
-5.702

>  <RMSD_LB>
5.662

>  <RMSD_UB>
9.154

$$$$
CHEMBL80153
 OpenBabel10162523353D

 24 24  0  0  0  0  0  0  0  0999 V2000
  145.5200  137.8990  151.3940 N   0  0  0  0  0  0  0  0  0  0  0  0
  145.0650  136.6620  150.9650 C   0  0  0  0  0  0  0  0  0  0  0  0
  145.8190  135.7500  150.6740 O   0  0  0  0  0  0  0  0  0  0  0  0
  144.8820  138.6190  151.6010 H   0  0  0  0  0  0  0  0  0  0  0  0
  146.9450  138.1190  151.5360 C   0  0  0  0  0  2  0  0  0  0  0  0
  147.3310  138.5920  152.9280 C   0  0  0  0  0  2  0  0  0  0  0  0
  147.9110  140.0030  152.8680 C   0  0  0  0  0  2  0  0  0  0  0  0
  147.1170  140.9470  153.7590 C   0  0  0  0  0  2  0  0  0  0  0  0
  146.6980  142.1890  152.9830 C   0  0  0  0  0  2  0  0  0  0  0  0
  145.6320  141.8360  151.9560 C   0  0  0  0  0  2  0  0  0  0  0  0
  147.0440  142.6240  150.0560 C   0  0  0  0  0  1  0  0  0  0  0  0
  145.7080  142.7730  150.7590 C   0  0  0  0  0  2  0  0  0  0  0  0
  143.5550  136.5670  150.8290 C   0  0  0  0  0  2  0  0  0  0  0  0
  142.8920  137.9490  150.9310 C   0  0  0  0  0  2  0  0  0  0  0  0
  141.5210  137.9260  151.5840 C   0  0  0  0  0  0  0  0  0  0  0  0
  140.3820  137.7020  150.8040 C   0  0  0  0  0  3  0  0  0  0  0  0
  139.1110  137.6800  151.3770 C   0  0  0  0  0  3  0  0  0  0  0  0
  138.9570  137.8770  152.7430 C   0  0  0  0  0  0  0  0  0  0  0  0
  140.0730  138.0920  153.5640 C   0  0  0  0  0  0  0  0  0  0  0  0
  141.3540  138.1130  152.9710 C   0  0  0  0  0  3  0  0  0  0  0  0
  137.6860  137.8520  153.2470 O   0  0  0  0  0  0  0  0  0  0  0  0
  137.3580  138.5860  153.7290 H   0  0  0  0  0  0  0  0  0  0  0  0
  140.0570  138.2980  154.9240 O   0  0  0  0  0  0  0  0  0  0  0  0
  141.2830  138.7220  155.5180 C   0  0  0  0  0  1  0  0  0  0  0  0
  1  5  1  0  0  0  0
  1  4  1  0  0  0  0
  2  1  1  0  0  0  0
  3  2  2  0  0  0  0
  5  6  1  0  0  0  0
  7  6  1  0  0  0  0
  7  8  1  0  0  0  0
  9  8  1  0  0  0  0
 10  9  1  0  0  0  0
 11 12  1  0  0  0  0
 12 10  1  0  0  0  0
 13 14  1  0  0  0  0
 13  2  1  0  0  0  0
 14 15  1  0  0  0  0
 15 20  1  0  0  0  0
 16 17  1  0  0  0  0
 16 15  2  0  0  0  0
 17 18  2  0  0  0  0
 18 21  1  0  0  0  0
 18 19  1  0  0  0  0
 19 23  1  0  0  0  0
 20 19  2  0  0  0  0
 21 22  1  0  0  0  0
 23 24  1  0  0  0  0
M  END
>  <MODEL>
6

>  <REMARK>
 VINA RESULT:    -5.647      5.391      8.728
 INTER + INTRA:         -10.444
 INTER:                  -9.444
 INTRA:                  -1.000
 UNBOUND:                -1.000
  Name = CHEMBL80153
  14 active torsions:
  status: ('A' for Active; 'I' for Inactive)
    1  A    between atoms: C_1  and  C_2
    2  A    between atoms: C_2  and  C_3
    3  A    between atoms: C_3  and  C_4
    4  A    between atoms: C_4  and  C_5
    5  A    between atoms: C_5  and  C_6
    6  A    between atoms: C_6  and  C_7
    7  A    between atoms: C_7  and  C_8
    8  A    between atoms: C_8  and  N_9
    9  A    between atoms: C_10  and  C_12
   10  A    between atoms: C_12  and  C_13
   11  A    between atoms: C_13  and  C_14
   12  A    between atoms: C_17  and  O_18
   13  A    between atoms: C_19  and  O_20
   14  A    between atoms: O_20  and  C_21
                            x       y       z     vdW  Elec       q    Type
                         _______ _______ _______ _____ _____    ______ ____

>  <TORSDO>
F 12

>  <SCORE>
-5.647

>  <RMSD_LB>
5.391

>  <RMSD_UB>
8.728

$$$$
CHEMBL80153
 OpenBabel10162523353D

 24 24  0  0  0  0  0  0  0  0999 V2000
  147.7980  141.8400  152.8520 N   0  0  0  0  0  0  0  0  0  0  0  0
  146.4870  142.2310  153.0710 C   0  0  0  0  0  0  0  0  0  0  0  0
  145.9950  142.2880  154.1850 O   0  0  0  0  0  0  0  0  0  0  0  0
  148.1540  141.7860  151.9360 H   0  0  0  0  0  0  0  0  0  0  0  0
  148.6370  141.5120  153.9860 C   0  0  0  0  0  2  0  0  0  0  0  0
  148.5310  140.0520  154.3930 C   0  0  0  0  0  2  0  0  0  0  0  0
  148.6730  139.1470  153.1710 C   0  0  0  0  0  2  0  0  0  0  0  0
  147.7190  137.9640  153.2660 C   0  0  0  0  0  2  0  0  0  0  0  0
  147.0940  137.6720  151.9090 C   0  0  0  0  0  2  0  0  0  0  0  0
  145.5860  137.5130  152.0450 C   0  0  0  0  0  2  0  0  0  0  0  0
  143.8510  138.0730  153.7490 C   0  0  0  0  0  1  0  0  0  0  0  0
  145.0090  138.6090  152.9290 C   0  0  0  0  0  2  0  0  0  0  0  0
  145.7020  142.5190  151.8020 C   0  0  0  0  0  2  0  0  0  0  0  0
  146.4670  142.0610  150.5510 C   0  0  0  0  0  2  0  0  0  0  0  0
  145.8490  140.8580  149.8590 C   0  0  0  0  0  0  0  0  0  0  0  0
  146.6570  139.9940  149.1120 C   0  0  0  0  0  3  0  0  0  0  0  0
  146.1160  138.8850  148.4630 C   0  0  0  0  0  3  0  0  0  0  0  0
  144.7560  138.6170  148.5540 C   0  0  0  0  0  0  0  0  0  0  0  0
  143.9130  139.4490  149.3030 C   0  0  0  0  0  0  0  0  0  0  0  0
  144.4740  140.5700  149.9540 C   0  0  0  0  0  3  0  0  0  0  0  0
  144.2810  137.5200  147.8900 O   0  0  0  0  0  0  0  0  0  0  0  0
  144.6210  136.6690  148.0860 H   0  0  0  0  0  0  0  0  0  0  0  0
  142.5560  139.2940  149.4730 O   0  0  0  0  0  0  0  0  0  0  0  0
  142.0130  139.7590  150.7090 C   0  0  0  0  0  1  0  0  0  0  0  0
  1  2  1  0  0  0  0
  1  5  1  0  0  0  0
  2  3  2  0  0  0  0
  4  1  1  0  0  0  0
  5  6  1  0  0  0  0
  7  8  1  0  0  0  0
  7  6  1  0  0  0  0
  9 10  1  0  0  0  0
  9  8  1  0  0  0  0
 10 12  1  0  0  0  0
 12 11  1  0  0  0  0
 13  2  1  0  0  0  0
 14 13  1  0  0  0  0
 15 20  1  0  0  0  0
 15 14  1  0  0  0  0
 16 15  2  0  0  0  0
 17 18  2  0  0  0  0
 17 16  1  0  0  0  0
 18 19  1  0  0  0  0
 19 23  1  0  0  0  0
 19 20  2  0  0  0  0
 21 22  1  0  0  0  0
 21 18  1  0  0  0  0
 23 24  1  0  0  0  0
M  END
>  <MODEL>
7

>  <REMARK>
 VINA RESULT:    -5.647      8.197     11.721
 INTER + INTRA:         -10.444
 INTER:                  -8.218
 INTRA:                  -2.226
 UNBOUND:                -1.000
  Name = CHEMBL80153
  14 active torsions:
  status: ('A' for Active; 'I' for Inactive)
    1  A    between atoms: C_1  and  C_2
    2  A    between atoms: C_2  and  C_3
    3  A    between atoms: C_3  and  C_4
    4  A    between atoms: C_4  and  C_5
    5  A    between atoms: C_5  and  C_6
    6  A    between atoms: C_6  and  C_7
    7  A    between atoms: C_7  and  C_8
    8  A    between atoms: C_8  and  N_9
    9  A    between atoms: C_10  and  C_12
   10  A    between atoms: C_12  and  C_13
   11  A    between atoms: C_13  and  C_14
   12  A    between atoms: C_17  and  O_18
   13  A    between atoms: C_19  and  O_20
   14  A    between atoms: O_20  and  C_21
                            x       y       z     vdW  Elec       q    Type
                         _______ _______ _______ _____ _____    ______ ____

>  <TORSDO>
F 12

>  <SCORE>
-5.647

>  <RMSD_LB>
8.197

>  <RMSD_UB>
11.721

$$$$
CHEMBL80153
 OpenBabel10162523353D

 24 24  0  0  0  0  0  0  0  0999 V2000
  143.9310  139.3640  148.5750 N   0  0  0  0  0  0  0  0  0  0  0  0
  144.0630  137.9980  148.7650 C   0  0  0  0  0  0  0  0  0  0  0  0
  145.0860  137.3920  148.4950 O   0  0  0  0  0  0  0  0  0  0  0  0
  143.0820  139.8160  148.7850 H   0  0  0  0  0  0  0  0  0  0  0  0
  145.0560  140.1190  148.0630 C   0  0  0  0  0  2  0  0  0  0  0  0
  145.9890  140.6000  149.1610 C   0  0  0  0  0  2  0  0  0  0  0  0
  145.1900  141.2250  150.3030 C   0  0  0  0  0  2  0  0  0  0  0  0
  146.1220  141.8290  151.3430 C   0  0  0  0  0  2  0  0  0  0  0  0
  147.4380  141.0630  151.3920 C   0  0  0  0  0  2  0  0  0  0  0  0
  148.5200  141.9130  152.0420 C   0  0  0  0  0  2  0  0  0  0  0  0
  148.6220  140.5540  154.1330 C   0  0  0  0  0  1  0  0  0  0  0  0
  148.3520  141.9300  153.5550 C   0  0  0  0  0  2  0  0  0  0  0  0
  142.8060  137.3160  149.2780 C   0  0  0  0  0  2  0  0  0  0  0  0
  143.0400  136.6600  150.6470 C   0  0  0  0  0  2  0  0  0  0  0  0
  142.4710  137.4510  151.8130 C   0  0  0  0  0  0  0  0  0  0  0  0
  141.0850  137.5500  151.9760 C   0  0  0  0  0  3  0  0  0  0  0  0
  140.5350  138.2720  153.0350 C   0  0  0  0  0  3  0  0  0  0  0  0
  141.3640  138.9060  153.9530 C   0  0  0  0  0  0  0  0  0  0  0  0
  142.7580  138.8210  153.8340 C   0  0  0  0  0  0  0  0  0  0  0  0
  143.3010  138.0880  152.7570 C   0  0  0  0  0  3  0  0  0  0  0  0
  140.7680  139.6060  154.9650 O   0  0  0  0  0  0  0  0  0  0  0  0
  140.2970  140.3940  154.7760 H   0  0  0  0  0  0  0  0  0  0  0  0
  143.6840  139.3980  154.6720 O   0  0  0  0  0  0  0  0  0  0  0  0
  144.9610  139.6910  154.1050 C   0  0  0  0  0  1  0  0  0  0  0  0
  1  2  1  0  0  0  0
  1  4  1  0  0  0  0
  2 13  1  0  0  0  0
  3  2  2  0  0  0  0
  5  1  1  0  0  0  0
  5  6  1  0  0  0  0
  6  7  1  0  0  0  0
  7  8  1  0  0  0  0
  8  9  1  0  0  0  0
  9 10  1  0  0  0  0
 10 12  1  0  0  0  0
 12 11  1  0  0  0  0
 13 14  1  0  0  0  0
 14 15  1  0  0  0  0
 15 16  2  0  0  0  0
 15 20  1  0  0  0  0
 16 17  1  0  0  0  0
 17 18  2  0  0  0  0
 18 21  1  0  0  0  0
 19 18  1  0  0  0  0
 19 23  1  0  0  0  0
 20 19  2  0  0  0  0
 22 21  1  0  0  0  0
 24 23  1  0  0  0  0
M  END
>  <MODEL>
8

>  <REMARK>
 VINA RESULT:    -5.575      5.875      8.977
 INTER + INTRA:         -10.322
 INTER:                  -9.193
 INTRA:                  -1.130
 UNBOUND:                -1.000
  Name = CHEMBL80153
  14 active torsions:
  status: ('A' for Active; 'I' for Inactive)
    1  A    between atoms: C_1  and  C_2
    2  A    between atoms: C_2  and  C_3
    3  A    between atoms: C_3  and  C_4
    4  A    between atoms: C_4  and  C_5
    5  A    between atoms: C_5  and  C_6
    6  A    between atoms: C_6  and  C_7
    7  A    between atoms: C_7  and  C_8
    8  A    between atoms: C_8  and  N_9
    9  A    between atoms: C_10  and  C_12
   10  A    between atoms: C_12  and  C_13
   11  A    between atoms: C_13  and  C_14
   12  A    between atoms: C_17  and  O_18
   13  A    between atoms: C_19  and  O_20
   14  A    between atoms: O_20  and  C_21
                            x       y       z     vdW  Elec       q    Type
                         _______ _______ _______ _____ _____    ______ ____

>  <TORSDO>
F 12

>  <SCORE>
-5.575

>  <RMSD_LB>
5.875

>  <RMSD_UB>
8.977

$$$$
CHEMBL80153
 OpenBabel10162523353D

 24 24  0  0  0  0  0  0  0  0999 V2000
  146.0920  137.5210  151.6600 N   0  0  0  0  0  0  0  0  0  0  0  0
  145.7230  136.4190  150.9060 C   0  0  0  0  0  0  0  0  0  0  0  0
  146.5140  135.5500  150.5810 O   0  0  0  0  0  0  0  0  0  0  0  0
  145.4300  138.2130  151.8850 H   0  0  0  0  0  0  0  0  0  0  0  0
  147.4630  137.6420  152.1130 C   0  0  0  0  0  2  0  0  0  0  0  0
  147.5680  138.1980  153.5240 C   0  0  0  0  0  2  0  0  0  0  0  0
  148.4260  139.4610  153.5350 C   0  0  0  0  0  2  0  0  0  0  0  0
  147.8930  140.4620  154.5510 C   0  0  0  0  0  2  0  0  0  0  0  0
  147.9380  141.8740  153.9850 C   0  0  0  0  0  2  0  0  0  0  0  0
  147.4970  141.8740  152.5280 C   0  0  0  0  0  2  0  0  0  0  0  0
  145.2150  141.0610  151.9280 C   0  0  0  0  0  1  0  0  0  0  0  0
  146.0260  142.2480  152.4120 C   0  0  0  0  0  2  0  0  0  0  0  0
  144.2680  136.4220  150.4680 C   0  0  0  0  0  2  0  0  0  0  0  0
  143.7840  137.8410  150.1340 C   0  0  0  0  0  2  0  0  0  0  0  0
  142.4560  138.2040  150.7750 C   0  0  0  0  0  0  0  0  0  0  0  0
  141.9730  137.4510  151.8510 C   0  0  0  0  0  3  0  0  0  0  0  0
  140.7560  137.7600  152.4560 C   0  0  0  0  0  3  0  0  0  0  0  0
  140.0000  138.8310  151.9970 C   0  0  0  0  0  0  0  0  0  0  0  0
  140.4510  139.6190  150.9300 C   0  0  0  0  0  0  0  0  0  0  0  0
  141.6860  139.2950  150.3260 C   0  0  0  0  0  3  0  0  0  0  0  0
  138.8100  139.0800  152.6250 O   0  0  0  0  0  0  0  0  0  0  0  0
  138.7280  138.9410  153.5470 H   0  0  0  0  0  0  0  0  0  0  0  0
  139.8020  140.7030  150.3850 O   0  0  0  0  0  0  0  0  0  0  0  0
  138.6970  140.4170  149.5270 C   0  0  0  0  0  1  0  0  0  0  0  0
  1  4  1  0  0  0  0
  1  5  1  0  0  0  0
  2  1  1  0  0  0  0
  3  2  2  0  0  0  0
  5  6  1  0  0  0  0
  6  7  1  0  0  0  0
  7  8  1  0  0  0  0
  9  8  1  0  0  0  0
 10  9  1  0  0  0  0
 11 12  1  0  0  0  0
 12 10  1  0  0  0  0
 13  2  1  0  0  0  0
 14 13  1  0  0  0  0
 14 15  1  0  0  0  0
 15 16  1  0  0  0  0
 16 17  2  0  0  0  0
 18 17  1  0  0  0  0
 18 21  1  0  0  0  0
 19 18  2  0  0  0  0
 20 15  2  0  0  0  0
 20 19  1  0  0  0  0
 21 22  1  0  0  0  0
 23 19  1  0  0  0  0
 24 23  1  0  0  0  0
M  END
>  <MODEL>
9

>  <REMARK>
 VINA RESULT:    -5.567      5.931      9.686
 INTER + INTRA:         -10.309
 INTER:                  -9.040
 INTRA:                  -1.269
 UNBOUND:                -1.000
  Name = CHEMBL80153
  14 active torsions:
  status: ('A' for Active; 'I' for Inactive)
    1  A    between atoms: C_1  and  C_2
    2  A    between atoms: C_2  and  C_3
    3  A    between atoms: C_3  and  C_4
    4  A    between atoms: C_4  and  C_5
    5  A    between atoms: C_5  and  C_6
    6  A    between atoms: C_6  and  C_7
    7  A    between atoms: C_7  and  C_8
    8  A    between atoms: C_8  and  N_9
    9  A    between atoms: C_10  and  C_12
   10  A    between atoms: C_12  and  C_13
   11  A    between atoms: C_13  and  C_14
   12  A    between atoms: C_17  and  O_18
   13  A    between atoms: C_19  and  O_20
   14  A    between atoms: O_20  and  C_21
                            x       y       z     vdW  Elec       q    Type
                         _______ _______ _______ _____ _____    ______ ____

>  <TORSDO>
F 12

>  <SCORE>
-5.567

>  <RMSD_LB>
5.931

>  <RMSD_UB>
9.686

$$$$
