CHEMBL2151431
 OpenBabel10172500583D

 24 24  0  0  1  0  0  0  0  0999 V2000
  145.2910  138.3400  153.2090 C   0  0  0  0  0  0  0  0  0  0  0  0
  145.4350  137.4890  154.0830 O   0  0  0  0  0  0  0  0  0  0  0  0
  144.2460  138.3470  152.3210 N   0  0  0  0  0  0  0  0  0  0  0  0
  144.1940  139.0640  151.6490 H   0  0  0  0  0  0  0  0  0  0  0  0
  146.2850  139.4660  153.0370 C   0  0  0  0  0  2  0  0  0  0  0  0
  146.2050  140.5090  154.1470 C   0  0  2  0  0  3  0  0  0  0  0  0
  144.8700  140.5150  154.6610 O   0  0  0  0  0  0  0  0  0  0  0  0
  144.3170  139.9210  154.1310 H   0  0  0  0  0  0  0  0  0  0  0  0
  146.5860  141.9170  153.6720 C   0  0  0  0  0  2  0  0  0  0  0  0
  146.0440  142.2060  152.2700 C   0  0  0  0  0  2  0  0  0  0  0  0
  147.1800  142.3640  151.2590 C   0  0  0  0  0  2  0  0  0  0  0  0
  146.1470  141.0920  149.3480 C   0  0  0  0  0  1  0  0  0  0  0  0
  146.6350  142.4460  149.8340 C   0  0  0  0  0  2  0  0  0  0  0  0
  143.2160  137.3310  152.3450 C   0  0  0  0  0  2  0  0  0  0  0  0
  141.9030  137.8920  152.8240 C   0  0  0  0  0  0  0  0  0  0  0  0
  141.8050  138.4820  154.0890 C   0  0  0  0  0  3  0  0  0  0  0  0
  140.5800  138.9710  154.5470 C   0  0  0  0  0  3  0  0  0  0  0  0
  139.4390  138.8850  153.7420 C   0  0  0  0  0  0  0  0  0  0  0  0
  139.5160  138.3180  152.4650 C   0  0  0  0  0  0  0  0  0  0  0  0
  140.7560  137.8330  152.0190 C   0  0  0  0  0  3  0  0  0  0  0  0
  138.2610  139.3680  154.2420 O   0  0  0  0  0  0  0  0  0  0  0  0
  138.2120  139.6510  155.1340 H   0  0  0  0  0  0  0  0  0  0  0  0
  138.5170  138.1520  151.5440 O   0  0  0  0  0  0  0  0  0  0  0  0
  137.5870  137.0980  151.7460 C   0  0  0  0  0  1  0  0  0  0  0  0
  1  2  2  0  0  0  0
  3 14  1  0  0  0  0
  3  1  1  0  0  0  0
  4  3  1  0  0  0  0
  5  1  1  0  0  0  0
  6  5  1  6  0  0  0
  6  7  1  0  0  0  0
  8  7  1  0  0  0  0
  9  6  1  0  0  0  0
 10  9  1  0  0  0  0
 11 10  1  0  0  0  0
 12 13  1  0  0  0  0
 13 11  1  0  0  0  0
 14 15  1  0  0  0  0
 15 16  1  0  0  0  0
 16 17  2  0  0  0  0
 18 21  1  0  0  0  0
 18 17  1  0  0  0  0
 19 18  2  0  0  0  0
 20 19  1  0  0  0  0
 20 15  2  0  0  0  0
 21 22  1  0  0  0  0
 23 24  1  0  0  0  0
 23 19  1  0  0  0  0
M  END
>  <MODEL>
1

>  <REMARK>
 VINA RESULT:    -6.005      0.000      0.000
 INTER + INTRA:         -10.879
 INTER:                  -9.804
 INTRA:                  -1.075
 UNBOUND:                -1.364
  Name = CHEMBL2151431
  13 active torsions:
  status: ('A' for Active; 'I' for Inactive)
    1  A    between atoms: C_1  and  C_2
    2  A    between atoms: C_2  and  C_3
    3  A    between atoms: C_3  and  C_4
    4  A    between atoms: C_4  and  C_5
    5  A    between atoms: C_5  and  C_6
    6  A    between atoms: C_6  and  O_7
    7  A    between atoms: C_6  and  C_8
    8  A    between atoms: C_8  and  C_9
    9  A    between atoms: N_11  and  C_12
   10  A    between atoms: C_12  and  C_13
   11  A    between atoms: C_16  and  O_17
   12  A    between atoms: C_18  and  O_19
   13  A    between atoms: O_19  and  C_20
                            x       y       z     vdW  Elec       q    Type
                         _______ _______ _______ _____ _____    ______ ____

>  <TORSDO>
F 11

>  <SCORE>
-6.005

>  <RMSD_LB>
0.000

>  <RMSD_UB>
0.000

$$$$
CHEMBL2151431
 OpenBabel10172500583D

 24 24  0  0  1  0  0  0  0  0999 V2000
  134.2380  134.8880  152.3460 C   0  0  0  0  0  0  0  0  0  0  0  0
  134.0890  136.0560  151.9980 O   0  0  0  0  0  0  0  0  0  0  0  0
  133.5260  133.8420  151.8160 N   0  0  0  0  0  0  0  0  0  0  0  0
  133.7020  132.9300  152.1430 H   0  0  0  0  0  0  0  0  0  0  0  0
  135.2340  134.5070  153.4170 C   0  0  0  0  0  2  0  0  0  0  0  0
  134.7590  134.8530  154.8250 C   0  0  2  0  0  3  0  0  0  0  0  0
  133.3600  135.1420  154.7680 O   0  0  0  0  0  0  0  0  0  0  0  0
  133.2160  135.9390  154.2360 H   0  0  0  0  0  0  0  0  0  0  0  0
  135.5120  136.0430  155.4340 C   0  0  0  0  0  2  0  0  0  0  0  0
  137.0140  135.7680  155.5380 C   0  0  0  0  0  2  0  0  0  0  0  0
  137.5400  136.0860  156.9370 C   0  0  0  0  0  2  0  0  0  0  0  0
  136.4150  136.4140  159.1640 C   0  0  0  0  0  1  0  0  0  0  0  0
  136.6540  135.4560  158.0110 C   0  0  0  0  0  2  0  0  0  0  0  0
  132.5250  134.0400  150.7910 C   0  0  0  0  0  2  0  0  0  0  0  0
  133.1270  133.9490  149.4130 C   0  0  0  0  0  0  0  0  0  0  0  0
  133.8670  132.8230  149.0360 C   0  0  0  0  0  3  0  0  0  0  0  0
  134.4540  132.7550  147.7710 C   0  0  0  0  0  3  0  0  0  0  0  0
  134.2990  133.8080  146.8620 C   0  0  0  0  0  0  0  0  0  0  0  0
  133.5460  134.9350  147.2080 C   0  0  0  0  0  0  0  0  0  0  0  0
  132.9610  134.9880  148.4840 C   0  0  0  0  0  3  0  0  0  0  0  0
  134.9040  133.6970  145.6400 O   0  0  0  0  0  0  0  0  0  0  0  0
  134.4020  133.8120  144.8570 H   0  0  0  0  0  0  0  0  0  0  0  0
  133.2860  136.0500  146.4580 O   0  0  0  0  0  0  0  0  0  0  0  0
  132.7180  137.1780  147.1060 C   0  0  0  0  0  1  0  0  0  0  0  0
  1  5  1  0  0  0  0
  2  1  2  0  0  0  0
  3  4  1  0  0  0  0
  3  1  1  0  0  0  0
  6  5  1  6  0  0  0
  6  9  1  0  0  0  0
  7  6  1  0  0  0  0
  8  7  1  0  0  0  0
  9 10  1  0  0  0  0
 10 11  1  0  0  0  0
 11 13  1  0  0  0  0
 13 12  1  0  0  0  0
 14  3  1  0  0  0  0
 15 14  1  0  0  0  0
 16 15  1  0  0  0  0
 17 16  2  0  0  0  0
 18 19  2  0  0  0  0
 18 17  1  0  0  0  0
 19 20  1  0  0  0  0
 20 15  2  0  0  0  0
 21 18  1  0  0  0  0
 22 21  1  0  0  0  0
 23 24  1  0  0  0  0
 23 19  1  0  0  0  0
M  END
>  <MODEL>
2

>  <REMARK>
 VINA RESULT:    -5.972      9.069     11.369
 INTER + INTRA:         -10.827
 INTER:                  -9.744
 INTRA:                  -1.082
 UNBOUND:                -1.364
  Name = CHEMBL2151431
  13 active torsions:
  status: ('A' for Active; 'I' for Inactive)
    1  A    between atoms: C_1  and  C_2
    2  A    between atoms: C_2  and  C_3
    3  A    between atoms: C_3  and  C_4
    4  A    between atoms: C_4  and  C_5
    5  A    between atoms: C_5  and  C_6
    6  A    between atoms: C_6  and  O_7
    7  A    between atoms: C_6  and  C_8
    8  A    between atoms: C_8  and  C_9
    9  A    between atoms: N_11  and  C_12
   10  A    between atoms: C_12  and  C_13
   11  A    between atoms: C_16  and  O_17
   12  A    between atoms: C_18  and  O_19
   13  A    between atoms: O_19  and  C_20
                            x       y       z     vdW  Elec       q    Type
                         _______ _______ _______ _____ _____    ______ ____

>  <TORSDO>
F 11

>  <SCORE>
-5.972

>  <RMSD_LB>
9.069

>  <RMSD_UB>
11.369

$$$$
CHEMBL2151431
 OpenBabel10172500583D

 24 24  0  0  1  0  0  0  0  0999 V2000
  146.3930  138.6150  154.5340 C   0  0  0  0  0  0  0  0  0  0  0  0
  146.3280  138.8840  155.7300 O   0  0  0  0  0  0  0  0  0  0  0  0
  145.2960  138.5200  153.7160 N   0  0  0  0  0  0  0  0  0  0  0  0
  145.4260  138.3020  152.7650 H   0  0  0  0  0  0  0  0  0  0  0  0
  147.7190  138.3520  153.8580 C   0  0  0  0  0  2  0  0  0  0  0  0
  148.5970  139.5950  153.7600 C   0  0  2  0  0  3  0  0  0  0  0  0
  148.7030  140.1730  155.0640 O   0  0  0  0  0  0  0  0  0  0  0  0
  149.2750  139.6200  155.6170 H   0  0  0  0  0  0  0  0  0  0  0  0
  148.0520  140.6360  152.7730 C   0  0  0  0  0  2  0  0  0  0  0  0
  147.6490  141.9310  153.4830 C   0  0  0  0  0  2  0  0  0  0  0  0
  146.1680  142.2410  153.2730 C   0  0  0  0  0  2  0  0  0  0  0  0
  145.6970  142.6510  150.8340 C   0  0  0  0  0  1  0  0  0  0  0  0
  145.6630  141.6360  151.9640 C   0  0  0  0  0  2  0  0  0  0  0  0
  143.9530  138.7300  154.2110 C   0  0  0  0  0  2  0  0  0  0  0  0
  142.9240  138.2080  153.2430 C   0  0  0  0  0  0  0  0  0  0  0  0
  143.3200  137.6320  152.0310 C   0  0  0  0  0  3  0  0  0  0  0  0
  142.3650  137.1800  151.1190 C   0  0  0  0  0  3  0  0  0  0  0  0
  141.0000  137.2890  151.4110 C   0  0  0  0  0  0  0  0  0  0  0  0
  140.5800  137.8430  152.6250 C   0  0  0  0  0  0  0  0  0  0  0  0
  141.5530  138.2910  153.5330 C   0  0  0  0  0  3  0  0  0  0  0  0
  140.1050  136.8430  150.4780 O   0  0  0  0  0  0  0  0  0  0  0  0
  140.2830  136.0600  149.9960 H   0  0  0  0  0  0  0  0  0  0  0  0
  139.3020  138.0280  153.0810 O   0  0  0  0  0  0  0  0  0  0  0  0
  139.1050  138.8900  154.1910 C   0  0  0  0  0  1  0  0  0  0  0  0
  1  2  2  0  0  0  0
  3 14  1  0  0  0  0
  3  1  1  0  0  0  0
  4  3  1  0  0  0  0
  5  1  1  0  0  0  0
  6  9  1  6  0  0  0
  6  5  1  0  0  0  0
  6  7  1  0  0  0  0
  7  8  1  0  0  0  0
  9 10  1  0  0  0  0
 11 10  1  0  0  0  0
 12 13  1  0  0  0  0
 13 11  1  0  0  0  0
 15 20  1  0  0  0  0
 15 14  1  0  0  0  0
 16 15  2  0  0  0  0
 17 18  2  0  0  0  0
 17 16  1  0  0  0  0
 18 19  1  0  0  0  0
 19 23  1  0  0  0  0
 19 20  2  0  0  0  0
 21 18  1  0  0  0  0
 22 21  1  0  0  0  0
 23 24  1  0  0  0  0
M  END
>  <MODEL>
3

>  <REMARK>
 VINA RESULT:    -5.944      1.717      2.656
 INTER + INTRA:         -10.783
 INTER:                  -9.555
 INTRA:                  -1.228
 UNBOUND:                -1.364
  Name = CHEMBL2151431
  13 active torsions:
  status: ('A' for Active; 'I' for Inactive)
    1  A    between atoms: C_1  and  C_2
    2  A    between atoms: C_2  and  C_3
    3  A    between atoms: C_3  and  C_4
    4  A    between atoms: C_4  and  C_5
    5  A    between atoms: C_5  and  C_6
    6  A    between atoms: C_6  and  O_7
    7  A    between atoms: C_6  and  C_8
    8  A    between atoms: C_8  and  C_9
    9  A    between atoms: N_11  and  C_12
   10  A    between atoms: C_12  and  C_13
   11  A    between atoms: C_16  and  O_17
   12  A    between atoms: C_18  and  O_19
   13  A    between atoms: O_19  and  C_20
                            x       y       z     vdW  Elec       q    Type
                         _______ _______ _______ _____ _____    ______ ____

>  <TORSDO>
F 11

>  <SCORE>
-5.944

>  <RMSD_LB>
1.717

>  <RMSD_UB>
2.656

$$$$
CHEMBL2151431
 OpenBabel10172500583D

 24 24  0  0  1  0  0  0  0  0999 V2000
  144.2090  139.6730  150.7230 C   0  0  0  0  0  0  0  0  0  0  0  0
  144.0520  140.1570  151.8400 O   0  0  0  0  0  0  0  0  0  0  0  0
  143.9830  138.3510  150.4290 N   0  0  0  0  0  0  0  0  0  0  0  0
  144.1270  138.0350  149.5090 H   0  0  0  0  0  0  0  0  0  0  0  0
  144.6820  140.5140  149.5600 C   0  0  0  0  0  2  0  0  0  0  0  0
  146.1690  140.8450  149.6280 C   0  0  2  0  0  3  0  0  0  0  0  0
  146.8310  139.7920  150.3330 O   0  0  0  0  0  0  0  0  0  0  0  0
  146.8500  138.9950  149.7820 H   0  0  0  0  0  0  0  0  0  0  0  0
  146.4520  142.1880  150.3140 C   0  0  0  0  0  2  0  0  0  0  0  0
  147.3170  142.0110  151.5650 C   0  0  0  0  0  2  0  0  0  0  0  0
  146.5310  142.3460  152.8330 C   0  0  0  0  0  2  0  0  0  0  0  0
  148.8090  141.9280  153.8170 C   0  0  0  0  0  1  0  0  0  0  0  0
  147.3140  141.9470  154.0820 C   0  0  0  0  0  2  0  0  0  0  0  0
  143.5390  137.4110  151.4340 C   0  0  0  0  0  2  0  0  0  0  0  0
  142.0560  137.5250  151.6750 C   0  0  0  0  0  0  0  0  0  0  0  0
  141.1480  137.2220  150.6540 C   0  0  0  0  0  3  0  0  0  0  0  0
  139.7750  137.3620  150.8660 C   0  0  0  0  0  3  0  0  0  0  0  0
  139.2920  137.7950  152.1060 C   0  0  0  0  0  0  0  0  0  0  0  0
  140.1790  138.0830  153.1490 C   0  0  0  0  0  0  0  0  0  0  0  0
  141.5570  137.9360  152.9190 C   0  0  0  0  0  3  0  0  0  0  0  0
  137.9390  137.9260  152.2590 O   0  0  0  0  0  0  0  0  0  0  0  0
  137.3590  137.3400  151.8140 H   0  0  0  0  0  0  0  0  0  0  0  0
  139.8940  138.5120  154.4170 O   0  0  0  0  0  0  0  0  0  0  0  0
  140.7330  138.0770  155.4770 C   0  0  0  0  0  1  0  0  0  0  0  0
  1  2  2  0  0  0  0
  3  1  1  0  0  0  0
  3 14  1  0  0  0  0
  4  3  1  0  0  0  0
  5  1  1  0  0  0  0
  6  5  1  1  0  0  0
  6  9  1  0  0  0  0
  6  7  1  0  0  0  0
  8  7  1  0  0  0  0
  9 10  1  0  0  0  0
 10 11  1  0  0  0  0
 11 13  1  0  0  0  0
 12 13  1  0  0  0  0
 14 15  1  0  0  0  0
 15 20  1  0  0  0  0
 16 17  1  0  0  0  0
 16 15  2  0  0  0  0
 17 18  2  0  0  0  0
 18 21  1  0  0  0  0
 18 19  1  0  0  0  0
 19 23  1  0  0  0  0
 20 19  2  0  0  0  0
 22 21  1  0  0  0  0
 23 24  1  0  0  0  0
M  END
>  <MODEL>
4

>  <REMARK>
 VINA RESULT:    -5.771      1.769      3.307
 INTER + INTRA:         -10.509
 INTER:                  -9.394
 INTRA:                  -1.114
 UNBOUND:                -1.364
  Name = CHEMBL2151431
  13 active torsions:
  status: ('A' for Active; 'I' for Inactive)
    1  A    between atoms: C_1  and  C_2
    2  A    between atoms: C_2  and  C_3
    3  A    between atoms: C_3  and  C_4
    4  A    between atoms: C_4  and  C_5
    5  A    between atoms: C_5  and  C_6
    6  A    between atoms: C_6  and  O_7
    7  A    between atoms: C_6  and  C_8
    8  A    between atoms: C_8  and  C_9
    9  A    between atoms: N_11  and  C_12
   10  A    between atoms: C_12  and  C_13
   11  A    between atoms: C_16  and  O_17
   12  A    between atoms: C_18  and  O_19
   13  A    between atoms: O_19  and  C_20
                            x       y       z     vdW  Elec       q    Type
                         _______ _______ _______ _____ _____    ______ ____

>  <TORSDO>
F 11

>  <SCORE>
-5.771

>  <RMSD_LB>
1.769

>  <RMSD_UB>
3.307

$$$$
CHEMBL2151431
 OpenBabel10172500583D

 24 24  0  0  1  0  0  0  0  0999 V2000
  145.3310  138.1240  154.0910 C   0  0  0  0  0  0  0  0  0  0  0  0
  145.6930  136.9540  154.1670 O   0  0  0  0  0  0  0  0  0  0  0  0
  144.3250  138.5560  153.2630 N   0  0  0  0  0  0  0  0  0  0  0  0
  144.0860  139.5100  153.2580 H   0  0  0  0  0  0  0  0  0  0  0  0
  145.9860  139.2060  154.9180 C   0  0  0  0  0  2  0  0  0  0  0  0
  147.5090  139.1140  154.9240 C   0  0  2  0  0  3  0  0  0  0  0  0
  147.9320  138.7610  156.2430 O   0  0  0  0  0  0  0  0  0  0  0  0
  148.0320  139.5640  156.7770 H   0  0  0  0  0  0  0  0  0  0  0  0
  148.1880  140.4210  154.4920 C   0  0  0  0  0  2  0  0  0  0  0  0
  148.4080  140.4690  152.9780 C   0  0  0  0  0  2  0  0  0  0  0  0
  148.6910  141.8940  152.5040 C   0  0  0  0  0  2  0  0  0  0  0  0
  146.4940  142.2690  151.3350 C   0  0  0  0  0  1  0  0  0  0  0  0
  148.0010  142.1740  151.1700 C   0  0  0  0  0  2  0  0  0  0  0  0
  143.6050  137.6470  152.3970 C   0  0  0  0  0  2  0  0  0  0  0  0
  142.1170  137.7570  152.6040 C   0  0  0  0  0  0  0  0  0  0  0  0
  141.2340  137.4510  151.5630 C   0  0  0  0  0  3  0  0  0  0  0  0
  139.8560  137.5860  151.7430 C   0  0  0  0  0  3  0  0  0  0  0  0
  139.3430  138.0180  152.9720 C   0  0  0  0  0  0  0  0  0  0  0  0
  140.2050  138.3100  154.0340 C   0  0  0  0  0  0  0  0  0  0  0  0
  141.5880  138.1680  153.8370 C   0  0  0  0  0  3  0  0  0  0  0  0
  137.9870  138.1450  153.0940 O   0  0  0  0  0  0  0  0  0  0  0  0
  137.6190  138.5220  153.8690 H   0  0  0  0  0  0  0  0  0  0  0  0
  139.8890  138.7380  155.2960 O   0  0  0  0  0  0  0  0  0  0  0  0
  139.7930  137.7690  156.3290 C   0  0  0  0  0  1  0  0  0  0  0  0
  1  2  2  0  0  0  0
  1  5  1  0  0  0  0
  3  1  1  0  0  0  0
  4  3  1  0  0  0  0
  5  6  1  0  0  0  0
  6  9  1  1  0  0  0
  6  7  1  0  0  0  0
  7  8  1  0  0  0  0
 10  9  1  0  0  0  0
 11 10  1  0  0  0  0
 13 12  1  0  0  0  0
 13 11  1  0  0  0  0
 14 15  1  0  0  0  0
 14  3  1  0  0  0  0
 15 20  1  0  0  0  0
 16 17  1  0  0  0  0
 16 15  2  0  0  0  0
 17 18  2  0  0  0  0
 18 21  1  0  0  0  0
 18 19  1  0  0  0  0
 19 23  1  0  0  0  0
 20 19  2  0  0  0  0
 21 22  1  0  0  0  0
 23 24  1  0  0  0  0
M  END
>  <MODEL>
5

>  <REMARK>
 VINA RESULT:    -5.748      1.566      2.442
 INTER + INTRA:         -10.471
 INTER:                  -9.812
 INTRA:                  -0.660
 UNBOUND:                -1.364
  Name = CHEMBL2151431
  13 active torsions:
  status: ('A' for Active; 'I' for Inactive)
    1  A    between atoms: C_1  and  C_2
    2  A    between atoms: C_2  and  C_3
    3  A    between atoms: C_3  and  C_4
    4  A    between atoms: C_4  and  C_5
    5  A    between atoms: C_5  and  C_6
    6  A    between atoms: C_6  and  O_7
    7  A    between atoms: C_6  and  C_8
    8  A    between atoms: C_8  and  C_9
    9  A    between atoms: N_11  and  C_12
   10  A    between atoms: C_12  and  C_13
   11  A    between atoms: C_16  and  O_17
   12  A    between atoms: C_18  and  O_19
   13  A    between atoms: O_19  and  C_20
                            x       y       z     vdW  Elec       q    Type
                         _______ _______ _______ _____ _____    ______ ____

>  <TORSDO>
F 11

>  <SCORE>
-5.748

>  <RMSD_LB>
1.566

>  <RMSD_UB>
2.442

$$$$
CHEMBL2151431
 OpenBabel10172500583D

 24 24  0  0  1  0  0  0  0  0999 V2000
  143.2970  139.8090  150.2390 C   0  0  0  0  0  0  0  0  0  0  0  0
  142.8790  140.3730  149.2330 O   0  0  0  0  0  0  0  0  0  0  0  0
  144.2600  140.3370  151.0610 N   0  0  0  0  0  0  0  0  0  0  0  0
  144.5440  139.8270  151.8540 H   0  0  0  0  0  0  0  0  0  0  0  0
  142.7750  138.4520  150.6540 C   0  0  0  0  0  2  0  0  0  0  0  0
  141.3040  138.4740  151.0540 C   0  0  2  0  0  3  0  0  0  0  0  0
  140.9800  139.7940  151.5000 O   0  0  0  0  0  0  0  0  0  0  0  0
  141.7420  140.3770  151.3650 H   0  0  0  0  0  0  0  0  0  0  0  0
  140.9670  137.4570  152.1530 C   0  0  0  0  0  2  0  0  0  0  0  0
  140.4620  138.1460  153.4230 C   0  0  0  0  0  2  0  0  0  0  0  0
  141.4690  138.0100  154.5650 C   0  0  0  0  0  2  0  0  0  0  0  0
  143.6410  139.2770  154.4510 C   0  0  0  0  0  1  0  0  0  0  0  0
  142.1720  139.3390  154.8350 C   0  0  0  0  0  2  0  0  0  0  0  0
  144.8710  141.6210  150.7970 C   0  0  0  0  0  2  0  0  0  0  0  0
  146.2360  141.7190  151.4260 C   0  0  0  0  0  0  0  0  0  0  0  0
  147.3080  142.2610  150.7100 C   0  0  0  0  0  3  0  0  0  0  0  0
  148.5810  142.3200  151.2810 C   0  0  0  0  0  3  0  0  0  0  0  0
  148.7950  141.8480  152.5810 C   0  0  0  0  0  0  0  0  0  0  0  0
  147.7340  141.3200  153.3250 C   0  0  0  0  0  0  0  0  0  0  0  0
  146.4600  141.2700  152.7360 C   0  0  0  0  0  3  0  0  0  0  0  0
  150.0620  141.9180  153.0900 O   0  0  0  0  0  0  0  0  0  0  0  0
  150.7690  142.2120  152.5500 H   0  0  0  0  0  0  0  0  0  0  0  0
  147.7520  140.8180  154.5980 O   0  0  0  0  0  0  0  0  0  0  0  0
  147.3360  139.4750  154.7950 C   0  0  0  0  0  1  0  0  0  0  0  0
  1  5  1  0  0  0  0
  1  3  1  0  0  0  0
  2  1  2  0  0  0  0
  3  4  1  0  0  0  0
  6  5  1  1  0  0  0
  6  7  1  0  0  0  0
  6  9  1  0  0  0  0
  8  7  1  0  0  0  0
  9 10  1  0  0  0  0
 10 11  1  0  0  0  0
 11 13  1  0  0  0  0
 12 13  1  0  0  0  0
 14  3  1  0  0  0  0
 14 15  1  0  0  0  0
 15 20  1  0  0  0  0
 16 17  1  0  0  0  0
 16 15  2  0  0  0  0
 17 18  2  0  0  0  0
 18 21  1  0  0  0  0
 18 19  1  0  0  0  0
 19 23  1  0  0  0  0
 20 19  2  0  0  0  0
 22 21  1  0  0  0  0
 23 24  1  0  0  0  0
M  END
>  <MODEL>
6

>  <REMARK>
 VINA RESULT:    -5.746      2.445      7.484
 INTER + INTRA:         -10.470
 INTER:                  -9.085
 INTRA:                  -1.384
 UNBOUND:                -1.364
  Name = CHEMBL2151431
  13 active torsions:
  status: ('A' for Active; 'I' for Inactive)
    1  A    between atoms: C_1  and  C_2
    2  A    between atoms: C_2  and  C_3
    3  A    between atoms: C_3  and  C_4
    4  A    between atoms: C_4  and  C_5
    5  A    between atoms: C_5  and  C_6
    6  A    between atoms: C_6  and  O_7
    7  A    between atoms: C_6  and  C_8
    8  A    between atoms: C_8  and  C_9
    9  A    between atoms: N_11  and  C_12
   10  A    between atoms: C_12  and  C_13
   11  A    between atoms: C_16  and  O_17
   12  A    between atoms: C_18  and  O_19
   13  A    between atoms: O_19  and  C_20
                            x       y       z     vdW  Elec       q    Type
                         _______ _______ _______ _____ _____    ______ ____

>  <TORSDO>
F 11

>  <SCORE>
-5.746

>  <RMSD_LB>
2.445

>  <RMSD_UB>
7.484

$$$$
CHEMBL2151431
 OpenBabel10172500583D

 24 24  0  0  1  0  0  0  0  0999 V2000
  143.9770  139.2030  153.4430 C   0  0  0  0  0  0  0  0  0  0  0  0
  144.5060  138.2550  154.0150 O   0  0  0  0  0  0  0  0  0  0  0  0
  142.6510  139.5300  153.5820 N   0  0  0  0  0  0  0  0  0  0  0  0
  142.2970  140.3070  153.0930 H   0  0  0  0  0  0  0  0  0  0  0  0
  144.7620  140.0980  152.5110 C   0  0  0  0  0  2  0  0  0  0  0  0
  145.8550  140.8880  153.2220 C   0  0  2  0  0  3  0  0  0  0  0  0
  145.4460  141.1020  154.5760 O   0  0  0  0  0  0  0  0  0  0  0  0
  146.2210  141.0660  155.1570 H   0  0  0  0  0  0  0  0  0  0  0  0
  146.1520  142.2350  152.5510 C   0  0  0  0  0  2  0  0  0  0  0  0
  147.2770  142.1150  151.5180 C   0  0  0  0  0  2  0  0  0  0  0  0
  146.8220  142.6080  150.1450 C   0  0  0  0  0  2  0  0  0  0  0  0
  146.9260  140.1420  149.6520 C   0  0  0  0  0  1  0  0  0  0  0  0
  146.2520  141.4600  149.3140 C   0  0  0  0  0  2  0  0  0  0  0  0
  141.7600  138.7650  154.4270 C   0  0  0  0  0  2  0  0  0  0  0  0
  140.5260  138.3370  153.6760 C   0  0  0  0  0  0  0  0  0  0  0  0
  139.2860  138.2900  154.3220 C   0  0  0  0  0  3  0  0  0  0  0  0
  138.1490  137.8590  153.6360 C   0  0  0  0  0  3  0  0  0  0  0  0
  138.2350  137.4800  152.2920 C   0  0  0  0  0  0  0  0  0  0  0  0
  139.4610  137.5380  151.6180 C   0  0  0  0  0  0  0  0  0  0  0  0
  140.5950  137.9750  152.3230 C   0  0  0  0  0  3  0  0  0  0  0  0
  137.0950  137.0550  151.6680 O   0  0  0  0  0  0  0  0  0  0  0  0
  137.1310  136.3430  151.0600 H   0  0  0  0  0  0  0  0  0  0  0  0
  139.7350  137.2120  150.3180 O   0  0  0  0  0  0  0  0  0  0  0  0
  141.0790  137.3100  149.8710 C   0  0  0  0  0  1  0  0  0  0  0  0
  1  3  1  0  0  0  0
  1  2  2  0  0  0  0
  3 14  1  0  0  0  0
  4  3  1  0  0  0  0
  5  1  1  0  0  0  0
  6  5  1  6  0  0  0
  6  7  1  0  0  0  0
  7  8  1  0  0  0  0
  9  6  1  0  0  0  0
 10  9  1  0  0  0  0
 11 10  1  0  0  0  0
 13 12  1  0  0  0  0
 13 11  1  0  0  0  0
 15 16  1  0  0  0  0
 15 14  1  0  0  0  0
 17 16  2  0  0  0  0
 18 17  1  0  0  0  0
 19 18  2  0  0  0  0
 19 20  1  0  0  0  0
 20 15  2  0  0  0  0
 21 18  1  0  0  0  0
 22 21  1  0  0  0  0
 23 19  1  0  0  0  0
 24 23  1  0  0  0  0
M  END
>  <MODEL>
7

>  <REMARK>
 VINA RESULT:    -5.742      1.445      2.048
 INTER + INTRA:         -10.463
 INTER:                  -9.367
 INTRA:                  -1.095
 UNBOUND:                -1.364
  Name = CHEMBL2151431
  13 active torsions:
  status: ('A' for Active; 'I' for Inactive)
    1  A    between atoms: C_1  and  C_2
    2  A    between atoms: C_2  and  C_3
    3  A    between atoms: C_3  and  C_4
    4  A    between atoms: C_4  and  C_5
    5  A    between atoms: C_5  and  C_6
    6  A    between atoms: C_6  and  O_7
    7  A    between atoms: C_6  and  C_8
    8  A    between atoms: C_8  and  C_9
    9  A    between atoms: N_11  and  C_12
   10  A    between atoms: C_12  and  C_13
   11  A    between atoms: C_16  and  O_17
   12  A    between atoms: C_18  and  O_19
   13  A    between atoms: O_19  and  C_20
                            x       y       z     vdW  Elec       q    Type
                         _______ _______ _______ _____ _____    ______ ____

>  <TORSDO>
F 11

>  <SCORE>
-5.742

>  <RMSD_LB>
1.445

>  <RMSD_UB>
2.048

$$$$
CHEMBL2151431
 OpenBabel10172500583D

 24 24  0  0  1  0  0  0  0  0999 V2000
  134.9880  135.2220  145.1450 C   0  0  0  0  0  0  0  0  0  0  0  0
  136.1200  134.7540  145.2220 O   0  0  0  0  0  0  0  0  0  0  0  0
  133.8780  134.6180  145.6810 N   0  0  0  0  0  0  0  0  0  0  0  0
  133.0020  135.0540  145.5820 H   0  0  0  0  0  0  0  0  0  0  0  0
  134.7220  136.5270  144.4290 C   0  0  0  0  0  2  0  0  0  0  0  0
  134.6980  137.7290  145.3660 C   0  0  2  0  0  3  0  0  0  0  0  0
  135.2120  137.3180  146.6360 O   0  0  0  0  0  0  0  0  0  0  0  0
  134.5450  137.4750  147.3210 H   0  0  0  0  0  0  0  0  0  0  0  0
  133.2940  138.3220  145.5410 C   0  0  0  0  0  2  0  0  0  0  0  0
  133.1680  139.6850  144.8560 C   0  0  0  0  0  2  0  0  0  0  0  0
  132.6210  139.5430  143.4360 C   0  0  0  0  0  2  0  0  0  0  0  0
  134.2480  141.1610  142.4010 C   0  0  0  0  0  1  0  0  0  0  0  0
  133.7290  139.7330  142.4020 C   0  0  0  0  0  2  0  0  0  0  0  0
  133.9600  133.3580  146.3870 C   0  0  0  0  0  2  0  0  0  0  0  0
  133.7790  133.5480  147.8700 C   0  0  0  0  0  0  0  0  0  0  0  0
  134.1530  132.5390  148.7640 C   0  0  0  0  0  3  0  0  0  0  0  0
  133.9530  132.7010  150.1360 C   0  0  0  0  0  3  0  0  0  0  0  0
  133.3870  133.8800  150.6330 C   0  0  0  0  0  0  0  0  0  0  0  0
  133.0240  134.9130  149.7610 C   0  0  0  0  0  0  0  0  0  0  0  0
  133.2330  134.7340  148.3840 C   0  0  0  0  0  3  0  0  0  0  0  0
  133.2020  133.9850  151.9840 O   0  0  0  0  0  0  0  0  0  0  0  0
  132.4220  134.3800  152.3210 H   0  0  0  0  0  0  0  0  0  0  0  0
  132.4650  136.1250  150.0620 O   0  0  0  0  0  0  0  0  0  0  0  0
  132.6070  137.1810  149.1220 C   0  0  0  0  0  1  0  0  0  0  0  0
  1  2  2  0  0  0  0
  1  3  1  0  0  0  0
  3 14  1  0  0  0  0
  4  3  1  0  0  0  0
  5  1  1  0  0  0  0
  6  5  1  6  0  0  0
  6  9  1  0  0  0  0
  6  7  1  0  0  0  0
  7  8  1  0  0  0  0
 10  9  1  0  0  0  0
 11 10  1  0  0  0  0
 12 13  1  0  0  0  0
 13 11  1  0  0  0  0
 14 15  1  0  0  0  0
 15 20  2  0  0  0  0
 15 16  1  0  0  0  0
 16 17  2  0  0  0  0
 17 18  1  0  0  0  0
 18 21  1  0  0  0  0
 19 23  1  0  0  0  0
 19 18  2  0  0  0  0
 20 19  1  0  0  0  0
 21 22  1  0  0  0  0
 24 23  1  0  0  0  0
M  END
>  <MODEL>
8

>  <REMARK>
 VINA RESULT:    -5.673     11.513     12.191
 INTER + INTRA:         -10.354
 INTER:                  -8.990
 INTRA:                  -1.364
 UNBOUND:                -1.364
  Name = CHEMBL2151431
  13 active torsions:
  status: ('A' for Active; 'I' for Inactive)
    1  A    between atoms: C_1  and  C_2
    2  A    between atoms: C_2  and  C_3
    3  A    between atoms: C_3  and  C_4
    4  A    between atoms: C_4  and  C_5
    5  A    between atoms: C_5  and  C_6
    6  A    between atoms: C_6  and  O_7
    7  A    between atoms: C_6  and  C_8
    8  A    between atoms: C_8  and  C_9
    9  A    between atoms: N_11  and  C_12
   10  A    between atoms: C_12  and  C_13
   11  A    between atoms: C_16  and  O_17
   12  A    between atoms: C_18  and  O_19
   13  A    between atoms: O_19  and  C_20
                            x       y       z     vdW  Elec       q    Type
                         _______ _______ _______ _____ _____    ______ ____

>  <TORSDO>
F 11

>  <SCORE>
-5.673

>  <RMSD_LB>
11.513

>  <RMSD_UB>
12.191

$$$$
CHEMBL2151431
 OpenBabel10172500583D

 24 24  0  0  1  0  0  0  0  0999 V2000
  134.8730  135.0560  152.2240 C   0  0  0  0  0  0  0  0  0  0  0  0
  135.5300  134.0460  151.9920 O   0  0  0  0  0  0  0  0  0  0  0  0
  134.5870  135.5010  153.4910 N   0  0  0  0  0  0  0  0  0  0  0  0
  134.0560  136.3220  153.6000 H   0  0  0  0  0  0  0  0  0  0  0  0
  134.3080  135.9020  151.1070 C   0  0  0  0  0  2  0  0  0  0  0  0
  132.9300  135.4400  150.6450 C   0  0  2  0  0  3  0  0  0  0  0  0
  132.3950  134.5630  151.6400 O   0  0  0  0  0  0  0  0  0  0  0  0
  132.9950  133.8130  151.7670 H   0  0  0  0  0  0  0  0  0  0  0  0
  132.9620  134.7270  149.2870 C   0  0  0  0  0  2  0  0  0  0  0  0
  133.0370  133.2060  149.4500 C   0  0  0  0  0  2  0  0  0  0  0  0
  134.1800  132.6170  148.6250 C   0  0  0  0  0  2  0  0  0  0  0  0
  136.2170  133.7450  147.6690 C   0  0  0  0  0  1  0  0  0  0  0  0
  134.7040  133.6330  147.6110 C   0  0  0  0  0  2  0  0  0  0  0  0
  135.0430  134.7970  154.6690 C   0  0  0  0  0  2  0  0  0  0  0  0
  135.8060  135.7110  155.5920 C   0  0  0  0  0  0  0  0  0  0  0  0
  136.5620  136.7690  155.0750 C   0  0  0  0  0  3  0  0  0  0  0  0
  137.2970  137.5950  155.9280 C   0  0  0  0  0  3  0  0  0  0  0  0
  137.2760  137.3800  157.3110 C   0  0  0  0  0  0  0  0  0  0  0  0
  136.5120  136.3420  157.8530 C   0  0  0  0  0  0  0  0  0  0  0  0
  135.7770  135.5210  156.9820 C   0  0  0  0  0  3  0  0  0  0  0  0
  138.0220  138.2100  158.1020 O   0  0  0  0  0  0  0  0  0  0  0  0
  137.6000  138.7690  158.7240 H   0  0  0  0  0  0  0  0  0  0  0  0
  136.3690  135.9840  159.1670 O   0  0  0  0  0  0  0  0  0  0  0  0
  135.1730  136.3540  159.8360 C   0  0  0  0  0  1  0  0  0  0  0  0
  1  3  1  0  0  0  0
  2  1  2  0  0  0  0
  3  4  1  0  0  0  0
  3 14  1  0  0  0  0
  5  1  1  0  0  0  0
  6  9  1  6  0  0  0
  6  5  1  0  0  0  0
  6  7  1  0  0  0  0
  7  8  1  0  0  0  0
  9 10  1  0  0  0  0
 11 10  1  0  0  0  0
 13 12  1  0  0  0  0
 13 11  1  0  0  0  0
 14 15  1  0  0  0  0
 15 20  1  0  0  0  0
 16 15  2  0  0  0  0
 16 17  1  0  0  0  0
 17 18  2  0  0  0  0
 18 19  1  0  0  0  0
 18 21  1  0  0  0  0
 19 23  1  0  0  0  0
 20 19  2  0  0  0  0
 21 22  1  0  0  0  0
 23 24  1  0  0  0  0
M  END
>  <MODEL>
9

>  <REMARK>
 VINA RESULT:    -5.644      8.068     10.963
 INTER + INTRA:         -10.308
 INTER:                  -9.087
 INTRA:                  -1.220
 UNBOUND:                -1.364
  Name = CHEMBL2151431
  13 active torsions:
  status: ('A' for Active; 'I' for Inactive)
    1  A    between atoms: C_1  and  C_2
    2  A    between atoms: C_2  and  C_3
    3  A    between atoms: C_3  and  C_4
    4  A    between atoms: C_4  and  C_5
    5  A    between atoms: C_5  and  C_6
    6  A    between atoms: C_6  and  O_7
    7  A    between atoms: C_6  and  C_8
    8  A    between atoms: C_8  and  C_9
    9  A    between atoms: N_11  and  C_12
   10  A    between atoms: C_12  and  C_13
   11  A    between atoms: C_16  and  O_17
   12  A    between atoms: C_18  and  O_19
   13  A    between atoms: O_19  and  C_20
                            x       y       z     vdW  Elec       q    Type
                         _______ _______ _______ _____ _____    ______ ____

>  <TORSDO>
F 11

>  <SCORE>
-5.644

>  <RMSD_LB>
8.068

>  <RMSD_UB>
10.963

$$$$
