CHEMBL121867
 OpenBabel10172500463D

 24 24  0  0  0  0  0  0  0  0999 V2000
  144.8470  137.9190  151.7740 N   0  0  0  0  0  0  0  0  0  0  0  0
  145.9700  137.4030  152.3700 C   0  0  0  0  0  0  0  0  0  0  0  0
  146.1270  136.2380  152.7060 O   0  0  0  0  0  0  0  0  0  0  0  0
  144.8210  138.8760  151.5440 H   0  0  0  0  0  0  0  0  0  0  0  0
  146.9830  138.4440  152.6340 C   0  0  0  0  0  3  0  0  0  0  0  0
  147.0990  139.1390  153.7840 C   0  0  0  0  0  0  0  0  0  0  0  0
  146.2340  138.8800  154.9920 C   0  0  0  0  0  1  0  0  0  0  0  0
  148.1250  140.2580  153.9760 C   0  0  0  0  0  2  0  0  0  0  0  0
  147.5130  141.6630  154.0910 C   0  0  0  0  0  2  0  0  0  0  0  0
  146.4430  142.0230  153.0990 C   0  0  0  0  0  3  0  0  0  0  0  0
  146.7100  142.2770  151.8010 C   0  0  0  0  0  0  0  0  0  0  0  0
  148.0930  142.2270  151.2010 C   0  0  0  0  0  1  0  0  0  0  0  0
  145.6270  142.6360  150.8230 C   0  0  0  0  0  1  0  0  0  0  0  0
  143.7070  137.0890  151.4790 C   0  0  0  0  0  2  0  0  0  0  0  0
  141.4410  138.6380  154.1260 C   0  0  0  0  0  0  0  0  0  0  0  0
  142.5730  138.1680  153.4530 C   0  0  0  0  0  3  0  0  0  0  0  0
  142.4640  137.5510  152.1950 C   0  0  0  0  0  0  0  0  0  0  0  0
  141.1970  137.3730  151.6290 C   0  0  0  0  0  3  0  0  0  0  0  0
  140.0580  137.8340  152.2920 C   0  0  0  0  0  3  0  0  0  0  0  0
  140.1870  138.4690  153.5290 C   0  0  0  0  0  0  0  0  0  0  0  0
  142.6920  139.8500  155.7530 C   0  0  0  0  0  1  0  0  0  0  0  0
  141.4600  139.2710  155.3430 O   0  0  0  0  0  0  0  0  0  0  0  0
  139.0680  138.9280  154.1750 O   0  0  0  0  0  0  0  0  0  0  0  0
  138.7670  139.8030  154.0270 H   0  0  0  0  0  0  0  0  0  0  0  0
  1  2  1  0  0  0  0
  2  5  1  0  0  0  0
  2  3  2  0  0  0  0
  4  1  1  0  0  0  0
  5  6  2  0  0  0  0
  6  8  1  0  0  0  0
  6  7  1  0  0  0  0
  8  9  1  0  0  0  0
 10  9  1  0  0  0  0
 11 10  2  0  0  0  0
 12 11  1  0  0  0  0
 13 11  1  0  0  0  0
 14  1  1  0  0  0  0
 14 17  1  0  0  0  0
 15 22  1  0  0  0  0
 16 15  2  0  0  0  0
 17 16  1  0  0  0  0
 18 17  2  0  0  0  0
 18 19  1  0  0  0  0
 19 20  2  0  0  0  0
 20 15  1  0  0  0  0
 20 23  1  0  0  0  0
 22 21  1  0  0  0  0
 24 23  1  0  0  0  0
M  END
>  <MODEL>
1

>  <REMARK>
 VINA RESULT:    -7.487      0.000      0.000
 INTER + INTRA:         -11.347
 INTER:                 -10.187
 INTRA:                  -1.160
 UNBOUND:                -0.578
  Name = CHEMBL121867
  12 active torsions:
  status: ('A' for Active; 'I' for Inactive)
    1  A    between atoms: C_1  and  O_2
    2  A    between atoms: O_2  and  C_3
    3  A    between atoms: C_5  and  C_6
    4  A    between atoms: C_6  and  N_7
    5  A    between atoms: C_8  and  C_10
    6  A    between atoms: C_11  and  C_12
    7  A    between atoms: C_11  and  C_13
    8  A    between atoms: C_13  and  C_14
    9  A    between atoms: C_14  and  C_15
   10  A    between atoms: C_16  and  C_17
   11  A    between atoms: C_16  and  C_18
   12  A    between atoms: C_21  and  O_22
                            x       y       z     vdW  Elec       q    Type
                         _______ _______ _______ _____ _____    ______ ____

>  <TORSDO>
F 8

>  <SCORE>
-7.487

>  <RMSD_LB>
0.000

>  <RMSD_UB>
0.000

$$$$
CHEMBL121867
 OpenBabel10172500463D

 24 24  0  0  0  0  0  0  0  0999 V2000
  144.5260  137.9380  151.7240 N   0  0  0  0  0  0  0  0  0  0  0  0
  145.5710  137.4830  152.4870 C   0  0  0  0  0  0  0  0  0  0  0  0
  145.7080  136.3410  152.9000 O   0  0  0  0  0  0  0  0  0  0  0  0
  144.5090  138.8810  151.4430 H   0  0  0  0  0  0  0  0  0  0  0  0
  146.5170  138.5650  152.8280 C   0  0  0  0  0  3  0  0  0  0  0  0
  146.3910  139.4030  153.8770 C   0  0  0  0  0  0  0  0  0  0  0  0
  145.2830  139.2890  154.8920 C   0  0  0  0  0  1  0  0  0  0  0  0
  147.3670  140.5520  154.1410 C   0  0  0  0  0  2  0  0  0  0  0  0
  146.7920  141.9470  153.8490 C   0  0  0  0  0  2  0  0  0  0  0  0
  146.2690  142.1930  152.4620 C   0  0  0  0  0  3  0  0  0  0  0  0
  147.0740  142.2470  151.3810 C   0  0  0  0  0  0  0  0  0  0  0  0
  148.5710  142.0670  151.4340 C   0  0  0  0  0  1  0  0  0  0  0  0
  146.5320  142.4930  150.0000 C   0  0  0  0  0  1  0  0  0  0  0  0
  143.4530  137.0630  151.3240 C   0  0  0  0  0  2  0  0  0  0  0  0
  139.7100  137.6810  151.7130 C   0  0  0  0  0  0  0  0  0  0  0  0
  140.9540  137.3470  151.1690 C   0  0  0  0  0  3  0  0  0  0  0  0
  142.1330  137.4670  151.9270 C   0  0  0  0  0  0  0  0  0  0  0  0
  142.0570  137.9630  153.2330 C   0  0  0  0  0  3  0  0  0  0  0  0
  140.8210  138.3040  153.7870 C   0  0  0  0  0  3  0  0  0  0  0  0
  139.6580  138.1550  153.0280 C   0  0  0  0  0  0  0  0  0  0  0  0
  138.2440  138.5310  150.0360 C   0  0  0  0  0  1  0  0  0  0  0  0
  138.5130  137.5730  151.0520 O   0  0  0  0  0  0  0  0  0  0  0  0
  138.4440  138.4820  153.5760 O   0  0  0  0  0  0  0  0  0  0  0  0
  138.1230  139.3600  153.5130 H   0  0  0  0  0  0  0  0  0  0  0  0
  1  2  1  0  0  0  0
  2  5  1  0  0  0  0
  2  3  2  0  0  0  0
  4  1  1  0  0  0  0
  5  6  2  0  0  0  0
  6  8  1  0  0  0  0
  6  7  1  0  0  0  0
  9  8  1  0  0  0  0
 10  9  1  0  0  0  0
 11 12  1  0  0  0  0
 11 10  2  0  0  0  0
 13 11  1  0  0  0  0
 14  1  1  0  0  0  0
 14 17  1  0  0  0  0
 15 20  1  0  0  0  0
 16 15  2  0  0  0  0
 16 17  1  0  0  0  0
 17 18  2  0  0  0  0
 18 19  1  0  0  0  0
 20 23  1  0  0  0  0
 20 19  2  0  0  0  0
 21 22  1  0  0  0  0
 22 15  1  0  0  0  0
 24 23  1  0  0  0  0
M  END
>  <MODEL>
2

>  <REMARK>
 VINA RESULT:    -7.209      1.180      2.310
 INTER + INTRA:         -10.948
 INTER:                  -9.930
 INTRA:                  -1.018
 UNBOUND:                -0.578
  Name = CHEMBL121867
  12 active torsions:
  status: ('A' for Active; 'I' for Inactive)
    1  A    between atoms: C_1  and  O_2
    2  A    between atoms: O_2  and  C_3
    3  A    between atoms: C_5  and  C_6
    4  A    between atoms: C_6  and  N_7
    5  A    between atoms: C_8  and  C_10
    6  A    between atoms: C_11  and  C_12
    7  A    between atoms: C_11  and  C_13
    8  A    between atoms: C_13  and  C_14
    9  A    between atoms: C_14  and  C_15
   10  A    between atoms: C_16  and  C_17
   11  A    between atoms: C_16  and  C_18
   12  A    between atoms: C_21  and  O_22
                            x       y       z     vdW  Elec       q    Type
                         _______ _______ _______ _____ _____    ______ ____

>  <TORSDO>
F 8

>  <SCORE>
-7.209

>  <RMSD_LB>
1.180

>  <RMSD_UB>
2.310

$$$$
CHEMBL121867
 OpenBabel10172500463D

 24 24  0  0  0  0  0  0  0  0999 V2000
  144.2590  137.6530  150.3190 N   0  0  0  0  0  0  0  0  0  0  0  0
  145.3260  138.0460  151.0870 C   0  0  0  0  0  0  0  0  0  0  0  0
  145.6060  137.6120  152.1940 O   0  0  0  0  0  0  0  0  0  0  0  0
  144.1210  138.0690  149.4370 H   0  0  0  0  0  0  0  0  0  0  0  0
  146.0950  139.1340  150.4480 C   0  0  0  0  0  3  0  0  0  0  0  0
  145.6630  140.4020  150.2930 C   0  0  0  0  0  0  0  0  0  0  0  0
  144.3420  140.8920  150.8300 C   0  0  0  0  0  1  0  0  0  0  0  0
  146.4770  141.4700  149.5600 C   0  0  0  0  0  2  0  0  0  0  0  0
  147.1020  142.5300  150.4800 C   0  0  0  0  0  2  0  0  0  0  0  0
  148.1430  142.0570  151.4550 C   0  0  0  0  0  3  0  0  0  0  0  0
  147.8930  141.9150  152.7730 C   0  0  0  0  0  0  0  0  0  0  0  0
  146.5580  142.2050  153.4140 C   0  0  0  0  0  1  0  0  0  0  0  0
  148.9480  141.4400  153.7340 C   0  0  0  0  0  1  0  0  0  0  0  0
  143.3380  136.6440  150.7760 C   0  0  0  0  0  2  0  0  0  0  0  0
  139.7420  137.8070  151.2850 C   0  0  0  0  0  0  0  0  0  0  0  0
  140.9050  137.2930  150.7020 C   0  0  0  0  0  3  0  0  0  0  0  0
  142.1130  137.2390  151.4190 C   0  0  0  0  0  0  0  0  0  0  0  0
  142.1550  137.7430  152.7240 C   0  0  0  0  0  3  0  0  0  0  0  0
  141.0030  138.2630  153.3170 C   0  0  0  0  0  3  0  0  0  0  0  0
  139.8050  138.2850  152.5980 C   0  0  0  0  0  0  0  0  0  0  0  0
  137.8290  136.6500  150.4590 C   0  0  0  0  0  1  0  0  0  0  0  0
  138.5200  137.8750  150.6660 O   0  0  0  0  0  0  0  0  0  0  0  0
  138.6720  138.7880  153.1850 O   0  0  0  0  0  0  0  0  0  0  0  0
  138.7280  139.5360  153.7470 H   0  0  0  0  0  0  0  0  0  0  0  0
  1 14  1  0  0  0  0
  1  2  1  0  0  0  0
  2  3  2  0  0  0  0
  4  1  1  0  0  0  0
  5  2  1  0  0  0  0
  6  5  2  0  0  0  0
  6  7  1  0  0  0  0
  8  6  1  0  0  0  0
  8  9  1  0  0  0  0
  9 10  1  0  0  0  0
 10 11  2  0  0  0  0
 11 12  1  0  0  0  0
 11 13  1  0  0  0  0
 14 17  1  0  0  0  0
 15 20  1  0  0  0  0
 16 15  2  0  0  0  0
 16 17  1  0  0  0  0
 17 18  2  0  0  0  0
 18 19  1  0  0  0  0
 20 23  1  0  0  0  0
 20 19  2  0  0  0  0
 21 22  1  0  0  0  0
 22 15  1  0  0  0  0
 23 24  1  0  0  0  0
M  END
>  <MODEL>
3

>  <REMARK>
 VINA RESULT:    -7.076      1.830      3.395
 INTER + INTRA:         -10.756
 INTER:                  -9.605
 INTRA:                  -1.151
 UNBOUND:                -0.578
  Name = CHEMBL121867
  12 active torsions:
  status: ('A' for Active; 'I' for Inactive)
    1  A    between atoms: C_1  and  O_2
    2  A    between atoms: O_2  and  C_3
    3  A    between atoms: C_5  and  C_6
    4  A    between atoms: C_6  and  N_7
    5  A    between atoms: C_8  and  C_10
    6  A    between atoms: C_11  and  C_12
    7  A    between atoms: C_11  and  C_13
    8  A    between atoms: C_13  and  C_14
    9  A    between atoms: C_14  and  C_15
   10  A    between atoms: C_16  and  C_17
   11  A    between atoms: C_16  and  C_18
   12  A    between atoms: C_21  and  O_22
                            x       y       z     vdW  Elec       q    Type
                         _______ _______ _______ _____ _____    ______ ____

>  <TORSDO>
F 8

>  <SCORE>
-7.076

>  <RMSD_LB>
1.830

>  <RMSD_UB>
3.395

$$$$
CHEMBL121867
 OpenBabel10172500463D

 24 24  0  0  0  0  0  0  0  0999 V2000
  134.1220  135.6690  153.9810 N   0  0  0  0  0  0  0  0  0  0  0  0
  134.1400  134.7000  153.0100 C   0  0  0  0  0  0  0  0  0  0  0  0
  134.7200  133.6270  153.0850 O   0  0  0  0  0  0  0  0  0  0  0  0
  133.6230  136.5030  153.8190 H   0  0  0  0  0  0  0  0  0  0  0  0
  133.4160  135.1220  151.7940 C   0  0  0  0  0  3  0  0  0  0  0  0
  133.9710  135.7610  150.7430 C   0  0  0  0  0  0  0  0  0  0  0  0
  135.4450  136.0630  150.6510 C   0  0  0  0  0  1  0  0  0  0  0  0
  133.1560  136.2370  149.5390 C   0  0  0  0  0  2  0  0  0  0  0  0
  132.8510  135.1390  148.5090 C   0  0  0  0  0  2  0  0  0  0  0  0
  134.0050  134.6350  147.6880 C   0  0  0  0  0  3  0  0  0  0  0  0
  134.5820  133.4350  147.9050 C   0  0  0  0  0  0  0  0  0  0  0  0
  134.1430  132.4710  148.9780 C   0  0  0  0  0  1  0  0  0  0  0  0
  135.7360  132.9480  147.0730 C   0  0  0  0  0  1  0  0  0  0  0  0
  134.8170  135.4920  155.2300 C   0  0  0  0  0  2  0  0  0  0  0  0
  137.6520  137.5820  156.6910 C   0  0  0  0  0  0  0  0  0  0  0  0
  136.4870  136.8180  156.5720 C   0  0  0  0  0  3  0  0  0  0  0  0
  136.0550  136.3450  155.3200 C   0  0  0  0  0  0  0  0  0  0  0  0
  136.7870  136.6780  154.1750 C   0  0  0  0  0  3  0  0  0  0  0  0
  137.9500  137.4440  154.2800 C   0  0  0  0  0  3  0  0  0  0  0  0
  138.3780  137.8840  155.5340 C   0  0  0  0  0  0  0  0  0  0  0  0
  137.3680  137.8640  159.0410 C   0  0  0  0  0  1  0  0  0  0  0  0
  138.1550  138.0630  157.8740 O   0  0  0  0  0  0  0  0  0  0  0  0
  139.5250  138.6290  155.6360 O   0  0  0  0  0  0  0  0  0  0  0  0
  139.5520  139.4970  155.2850 H   0  0  0  0  0  0  0  0  0  0  0  0
  1 14  1  0  0  0  0
  2  3  2  0  0  0  0
  2  1  1  0  0  0  0
  4  1  1  0  0  0  0
  5  2  1  0  0  0  0
  6  5  2  0  0  0  0
  7  6  1  0  0  0  0
  8  6  1  0  0  0  0
  9  8  1  0  0  0  0
 10 11  2  0  0  0  0
 10  9  1  0  0  0  0
 11 12  1  0  0  0  0
 13 11  1  0  0  0  0
 14 17  1  0  0  0  0
 15 22  1  0  0  0  0
 16 15  1  0  0  0  0
 17 16  2  0  0  0  0
 18 19  2  0  0  0  0
 18 17  1  0  0  0  0
 19 20  1  0  0  0  0
 20 23  1  0  0  0  0
 20 15  2  0  0  0  0
 22 21  1  0  0  0  0
 24 23  1  0  0  0  0
M  END
>  <MODEL>
4

>  <REMARK>
 VINA RESULT:    -6.950      7.574     11.272
 INTER + INTRA:         -10.574
 INTER:                  -9.353
 INTRA:                  -1.221
 UNBOUND:                -0.578
  Name = CHEMBL121867
  12 active torsions:
  status: ('A' for Active; 'I' for Inactive)
    1  A    between atoms: C_1  and  O_2
    2  A    between atoms: O_2  and  C_3
    3  A    between atoms: C_5  and  C_6
    4  A    between atoms: C_6  and  N_7
    5  A    between atoms: C_8  and  C_10
    6  A    between atoms: C_11  and  C_12
    7  A    between atoms: C_11  and  C_13
    8  A    between atoms: C_13  and  C_14
    9  A    between atoms: C_14  and  C_15
   10  A    between atoms: C_16  and  C_17
   11  A    between atoms: C_16  and  C_18
   12  A    between atoms: C_21  and  O_22
                            x       y       z     vdW  Elec       q    Type
                         _______ _______ _______ _____ _____    ______ ____

>  <TORSDO>
F 8

>  <SCORE>
-6.950

>  <RMSD_LB>
7.574

>  <RMSD_UB>
11.272

$$$$
CHEMBL121867
 OpenBabel10172500463D

 24 24  0  0  0  0  0  0  0  0999 V2000
  138.3720  136.8050  150.5340 N   0  0  0  0  0  0  0  0  0  0  0  0
  139.1440  137.9340  150.6460 C   0  0  0  0  0  0  0  0  0  0  0  0
  138.7440  139.0840  150.5440 O   0  0  0  0  0  0  0  0  0  0  0  0
  138.7950  135.9210  150.6320 H   0  0  0  0  0  0  0  0  0  0  0  0
  140.5710  137.6100  150.8450 C   0  0  0  0  0  3  0  0  0  0  0  0
  141.2280  137.6890  152.0210 C   0  0  0  0  0  0  0  0  0  0  0  0
  140.5510  138.0570  153.3170 C   0  0  0  0  0  1  0  0  0  0  0  0
  142.7260  137.4090  152.1540 C   0  0  0  0  0  2  0  0  0  0  0  0
  143.2390  137.3950  153.6030 C   0  0  0  0  0  2  0  0  0  0  0  0
  144.6250  136.8600  153.8300 C   0  0  0  0  0  3  0  0  0  0  0  0
  145.6650  137.6530  154.1580 C   0  0  0  0  0  0  0  0  0  0  0  0
  145.5620  139.1480  154.3360 C   0  0  0  0  0  1  0  0  0  0  0  0
  147.0450  137.1000  154.3820 C   0  0  0  0  0  1  0  0  0  0  0  0
  136.9580  136.8870  150.2770 C   0  0  0  0  0  2  0  0  0  0  0  0
  134.5030  134.2500  151.5280 C   0  0  0  0  0  0  0  0  0  0  0  0
  135.2340  135.0950  150.6880 C   0  0  0  0  0  3  0  0  0  0  0  0
  136.1570  136.0170  151.2120 C   0  0  0  0  0  0  0  0  0  0  0  0
  136.3140  136.1120  152.5990 C   0  0  0  0  0  3  0  0  0  0  0  0
  135.5870  135.2770  153.4500 C   0  0  0  0  0  3  0  0  0  0  0  0
  134.6940  134.3490  152.9100 C   0  0  0  0  0  0  0  0  0  0  0  0
  132.7400  133.6760  150.0300 C   0  0  0  0  0  1  0  0  0  0  0  0
  133.6020  133.3090  151.0990 O   0  0  0  0  0  0  0  0  0  0  0  0
  133.9860  133.5240  153.7460 O   0  0  0  0  0  0  0  0  0  0  0  0
  134.2770  133.3880  154.6270 H   0  0  0  0  0  0  0  0  0  0  0  0
  1  4  1  0  0  0  0
  1  2  1  0  0  0  0
  2  5  1  0  0  0  0
  3  2  2  0  0  0  0
  5  6  2  0  0  0  0
  6  8  1  0  0  0  0
  6  7  1  0  0  0  0
  8  9  1  0  0  0  0
  9 10  1  0  0  0  0
 10 11  2  0  0  0  0
 11 12  1  0  0  0  0
 11 13  1  0  0  0  0
 14  1  1  0  0  0  0
 14 17  1  0  0  0  0
 15 20  1  0  0  0  0
 16 17  1  0  0  0  0
 16 15  2  0  0  0  0
 17 18  2  0  0  0  0
 18 19  1  0  0  0  0
 20 19  2  0  0  0  0
 20 23  1  0  0  0  0
 21 22  1  0  0  0  0
 22 15  1  0  0  0  0
 23 24  1  0  0  0  0
M  END
>  <MODEL>
5

>  <REMARK>
 VINA RESULT:    -6.759      4.654      7.282
 INTER + INTRA:         -10.301
 INTER:                  -9.625
 INTRA:                  -0.675
 UNBOUND:                -0.578
  Name = CHEMBL121867
  12 active torsions:
  status: ('A' for Active; 'I' for Inactive)
    1  A    between atoms: C_1  and  O_2
    2  A    between atoms: O_2  and  C_3
    3  A    between atoms: C_5  and  C_6
    4  A    between atoms: C_6  and  N_7
    5  A    between atoms: C_8  and  C_10
    6  A    between atoms: C_11  and  C_12
    7  A    between atoms: C_11  and  C_13
    8  A    between atoms: C_13  and  C_14
    9  A    between atoms: C_14  and  C_15
   10  A    between atoms: C_16  and  C_17
   11  A    between atoms: C_16  and  C_18
   12  A    between atoms: C_21  and  O_22
                            x       y       z     vdW  Elec       q    Type
                         _______ _______ _______ _____ _____    ______ ____

>  <TORSDO>
F 8

>  <SCORE>
-6.759

>  <RMSD_LB>
4.654

>  <RMSD_UB>
7.282

$$$$
CHEMBL121867
 OpenBabel10172500463D

 24 24  0  0  0  0  0  0  0  0999 V2000
  145.4010  141.3910  149.7720 N   0  0  0  0  0  0  0  0  0  0  0  0
  145.4110  140.3440  148.8860 C   0  0  0  0  0  0  0  0  0  0  0  0
  146.3590  140.0040  148.1940 O   0  0  0  0  0  0  0  0  0  0  0  0
  144.5810  141.5830  150.2820 H   0  0  0  0  0  0  0  0  0  0  0  0
  144.0930  139.6830  148.7990 C   0  0  0  0  0  3  0  0  0  0  0  0
  143.8250  138.4300  149.2200 C   0  0  0  0  0  0  0  0  0  0  0  0
  144.8430  137.5600  149.9130 C   0  0  0  0  0  1  0  0  0  0  0  0
  142.4560  137.7700  149.0390 C   0  0  0  0  0  2  0  0  0  0  0  0
  142.0920  136.7600  150.1390 C   0  0  0  0  0  2  0  0  0  0  0  0
  141.8840  137.3040  151.5230 C   0  0  0  0  0  3  0  0  0  0  0  0
  140.6660  137.6460  151.9940 C   0  0  0  0  0  0  0  0  0  0  0  0
  139.3900  137.5210  151.1990 C   0  0  0  0  0  1  0  0  0  0  0  0
  140.4770  138.1900  153.3820 C   0  0  0  0  0  1  0  0  0  0  0  0
  146.5660  142.2140  149.9720 C   0  0  0  0  0  2  0  0  0  0  0  0
  147.0930  141.0730  153.5730 C   0  0  0  0  0  0  0  0  0  0  0  0
  146.4940  141.3620  152.3430 C   0  0  0  0  0  3  0  0  0  0  0  0
  147.2300  141.9500  151.2990 C   0  0  0  0  0  0  0  0  0  0  0  0
  148.5730  142.2820  151.5130 C   0  0  0  0  0  3  0  0  0  0  0  0
  149.1810  142.0020  152.7380 C   0  0  0  0  0  3  0  0  0  0  0  0
  148.4410  141.3950  153.7550 C   0  0  0  0  0  0  0  0  0  0  0  0
  145.3170  139.6810  154.3410 C   0  0  0  0  0  1  0  0  0  0  0  0
  146.4550  140.4820  154.6340 O   0  0  0  0  0  0  0  0  0  0  0  0
  149.0430  141.1130  154.9550 O   0  0  0  0  0  0  0  0  0  0  0  0
  149.5170  141.7820  155.4100 H   0  0  0  0  0  0  0  0  0  0  0  0
  1 14  1  0  0  0  0
  1  4  1  0  0  0  0
  2  1  1  0  0  0  0
  3  2  2  0  0  0  0
  5  2  1  0  0  0  0
  5  6  2  0  0  0  0
  6  7  1  0  0  0  0
  8  6  1  0  0  0  0
  8  9  1  0  0  0  0
  9 10  1  0  0  0  0
 10 11  2  0  0  0  0
 11 13  1  0  0  0  0
 12 11  1  0  0  0  0
 14 17  1  0  0  0  0
 15 20  1  0  0  0  0
 15 22  1  0  0  0  0
 16 15  2  0  0  0  0
 17 18  2  0  0  0  0
 17 16  1  0  0  0  0
 18 19  1  0  0  0  0
 19 20  2  0  0  0  0
 20 23  1  0  0  0  0
 21 22  1  0  0  0  0
 23 24  1  0  0  0  0
M  END
>  <MODEL>
6

>  <REMARK>
 VINA RESULT:    -6.689      2.776      7.024
 INTER + INTRA:         -10.199
 INTER:                  -9.430
 INTRA:                  -0.769
 UNBOUND:                -0.578
  Name = CHEMBL121867
  12 active torsions:
  status: ('A' for Active; 'I' for Inactive)
    1  A    between atoms: C_1  and  O_2
    2  A    between atoms: O_2  and  C_3
    3  A    between atoms: C_5  and  C_6
    4  A    between atoms: C_6  and  N_7
    5  A    between atoms: C_8  and  C_10
    6  A    between atoms: C_11  and  C_12
    7  A    between atoms: C_11  and  C_13
    8  A    between atoms: C_13  and  C_14
    9  A    between atoms: C_14  and  C_15
   10  A    between atoms: C_16  and  C_17
   11  A    between atoms: C_16  and  C_18
   12  A    between atoms: C_21  and  O_22
                            x       y       z     vdW  Elec       q    Type
                         _______ _______ _______ _____ _____    ______ ____

>  <TORSDO>
F 8

>  <SCORE>
-6.689

>  <RMSD_LB>
2.776

>  <RMSD_UB>
7.024

$$$$
CHEMBL121867
 OpenBabel10172500463D

 24 24  0  0  0  0  0  0  0  0999 V2000
  134.4980  135.8820  152.5140 N   0  0  0  0  0  0  0  0  0  0  0  0
  134.3390  135.5360  153.8330 C   0  0  0  0  0  0  0  0  0  0  0  0
  133.3150  135.1000  154.3370 O   0  0  0  0  0  0  0  0  0  0  0  0
  135.3680  136.2270  152.2090 H   0  0  0  0  0  0  0  0  0  0  0  0
  135.5530  135.8150  154.6270 C   0  0  0  0  0  3  0  0  0  0  0  0
  135.7210  135.4920  155.9250 C   0  0  0  0  0  0  0  0  0  0  0  0
  134.6960  134.7250  156.7210 C   0  0  0  0  0  1  0  0  0  0  0  0
  136.9750  135.8690  156.7170 C   0  0  0  0  0  2  0  0  0  0  0  0
  137.3220  137.3650  156.6730 C   0  0  0  0  0  2  0  0  0  0  0  0
  138.7670  137.7240  156.4710 C   0  0  0  0  0  3  0  0  0  0  0  0
  139.2840  138.0040  155.2560 C   0  0  0  0  0  0  0  0  0  0  0  0
  138.4830  137.9950  153.9780 C   0  0  0  0  0  1  0  0  0  0  0  0
  140.7330  138.3610  155.0730 C   0  0  0  0  0  1  0  0  0  0  0  0
  133.4190  135.7480  151.5700 C   0  0  0  0  0  2  0  0  0  0  0  0
  134.4770  134.4510  148.1430 C   0  0  0  0  0  0  0  0  0  0  0  0
  134.1250  135.3070  149.1910 C   0  0  0  0  0  3  0  0  0  0  0  0
  133.7560  134.7990  150.4490 C   0  0  0  0  0  0  0  0  0  0  0  0
  133.7070  133.4130  150.6380 C   0  0  0  0  0  3  0  0  0  0  0  0
  134.0520  132.5470  149.5980 C   0  0  0  0  0  3  0  0  0  0  0  0
  134.4410  133.0710  148.3630 C   0  0  0  0  0  0  0  0  0  0  0  0
  133.9900  135.7300  146.1910 C   0  0  0  0  0  1  0  0  0  0  0  0
  134.8700  134.8630  146.8950 O   0  0  0  0  0  0  0  0  0  0  0  0
  134.7880  132.2190  147.3450 O   0  0  0  0  0  0  0  0  0  0  0  0
  135.6910  132.0360  147.1740 H   0  0  0  0  0  0  0  0  0  0  0  0
  1  2  1  0  0  0  0
  2  3  2  0  0  0  0
  2  5  1  0  0  0  0
  4  1  1  0  0  0  0
  5  6  2  0  0  0  0
  6  8  1  0  0  0  0
  6  7  1  0  0  0  0
  9  8  1  0  0  0  0
 10  9  1  0  0  0  0
 11 10  2  0  0  0  0
 12 11  1  0  0  0  0
 13 11  1  0  0  0  0
 14  1  1  0  0  0  0
 15 20  2  0  0  0  0
 15 16  1  0  0  0  0
 16 17  2  0  0  0  0
 17 18  1  0  0  0  0
 17 14  1  0  0  0  0
 19 18  2  0  0  0  0
 20 19  1  0  0  0  0
 21 22  1  0  0  0  0
 22 15  1  0  0  0  0
 23 20  1  0  0  0  0
 24 23  1  0  0  0  0
M  END
>  <MODEL>
7

>  <REMARK>
 VINA RESULT:    -6.667      6.996     10.767
 INTER + INTRA:         -10.168
 INTER:                  -9.904
 INTRA:                  -0.264
 UNBOUND:                -0.578
  Name = CHEMBL121867
  12 active torsions:
  status: ('A' for Active; 'I' for Inactive)
    1  A    between atoms: C_1  and  O_2
    2  A    between atoms: O_2  and  C_3
    3  A    between atoms: C_5  and  C_6
    4  A    between atoms: C_6  and  N_7
    5  A    between atoms: C_8  and  C_10
    6  A    between atoms: C_11  and  C_12
    7  A    between atoms: C_11  and  C_13
    8  A    between atoms: C_13  and  C_14
    9  A    between atoms: C_14  and  C_15
   10  A    between atoms: C_16  and  C_17
   11  A    between atoms: C_16  and  C_18
   12  A    between atoms: C_21  and  O_22
                            x       y       z     vdW  Elec       q    Type
                         _______ _______ _______ _____ _____    ______ ____

>  <TORSDO>
F 8

>  <SCORE>
-6.667

>  <RMSD_LB>
6.996

>  <RMSD_UB>
10.767

$$$$
CHEMBL121867
 OpenBabel10172500463D

 24 24  0  0  0  0  0  0  0  0999 V2000
  145.3340  138.5250  150.5840 N   0  0  0  0  0  0  0  0  0  0  0  0
  144.8200  137.3030  150.9410 C   0  0  0  0  0  0  0  0  0  0  0  0
  145.4740  136.3190  151.2520 O   0  0  0  0  0  0  0  0  0  0  0  0
  144.7170  139.2560  150.3490 H   0  0  0  0  0  0  0  0  0  0  0  0
  143.3470  137.2750  150.8460 C   0  0  0  0  0  3  0  0  0  0  0  0
  142.5000  137.3880  151.8910 C   0  0  0  0  0  0  0  0  0  0  0  0
  142.9660  137.6370  153.3030 C   0  0  0  0  0  1  0  0  0  0  0  0
  140.9810  137.2800  151.7410 C   0  0  0  0  0  2  0  0  0  0  0  0
  140.4800  137.3940  150.2930 C   0  0  0  0  0  2  0  0  0  0  0  0
  139.5170  136.3420  149.8200 C   0  0  0  0  0  3  0  0  0  0  0  0
  139.7040  135.6450  148.6810 C   0  0  0  0  0  0  0  0  0  0  0  0
  140.8860  135.8330  147.7620 C   0  0  0  0  0  1  0  0  0  0  0  0
  138.7290  134.5960  148.2230 C   0  0  0  0  0  1  0  0  0  0  0  0
  146.7540  138.7590  150.5480 C   0  0  0  0  0  2  0  0  0  0  0  0
  147.9660  139.8590  153.9930 C   0  0  0  0  0  0  0  0  0  0  0  0
  147.5020  139.0720  152.9340 C   0  0  0  0  0  3  0  0  0  0  0  0
  147.2160  139.6400  151.6800 C   0  0  0  0  0  0  0  0  0  0  0  0
  147.3640  141.0200  151.5060 C   0  0  0  0  0  3  0  0  0  0  0  0
  147.8220  141.8180  152.5570 C   0  0  0  0  0  3  0  0  0  0  0  0
  148.1260  141.2330  153.7880 C   0  0  0  0  0  0  0  0  0  0  0  0
  147.4400  138.3870  155.7930 C   0  0  0  0  0  1  0  0  0  0  0  0
  148.2900  139.3830  155.2380 O   0  0  0  0  0  0  0  0  0  0  0  0
  148.5840  142.0160  154.8160 O   0  0  0  0  0  0  0  0  0  0  0  0
  149.4160  142.4430  154.7450 H   0  0  0  0  0  0  0  0  0  0  0  0
  1  2  1  0  0  0  0
  2  3  2  0  0  0  0
  4  1  1  0  0  0  0
  5  2  1  0  0  0  0
  5  6  2  0  0  0  0
  6  7  1  0  0  0  0
  8  6  1  0  0  0  0
  9  8  1  0  0  0  0
 10  9  1  0  0  0  0
 11 10  2  0  0  0  0
 12 11  1  0  0  0  0
 13 11  1  0  0  0  0
 14  1  1  0  0  0  0
 14 17  1  0  0  0  0
 15 22  1  0  0  0  0
 16 15  2  0  0  0  0
 17 16  1  0  0  0  0
 18 17  2  0  0  0  0
 18 19  1  0  0  0  0
 19 20  2  0  0  0  0
 20 15  1  0  0  0  0
 20 23  1  0  0  0  0
 22 21  1  0  0  0  0
 24 23  1  0  0  0  0
M  END
>  <MODEL>
8

>  <REMARK>
 VINA RESULT:    -6.408      2.640      7.112
 INTER + INTRA:          -9.795
 INTER:                  -8.900
 INTRA:                  -0.895
 UNBOUND:                -0.578
  Name = CHEMBL121867
  12 active torsions:
  status: ('A' for Active; 'I' for Inactive)
    1  A    between atoms: C_1  and  O_2
    2  A    between atoms: O_2  and  C_3
    3  A    between atoms: C_5  and  C_6
    4  A    between atoms: C_6  and  N_7
    5  A    between atoms: C_8  and  C_10
    6  A    between atoms: C_11  and  C_12
    7  A    between atoms: C_11  and  C_13
    8  A    between atoms: C_13  and  C_14
    9  A    between atoms: C_14  and  C_15
   10  A    between atoms: C_16  and  C_17
   11  A    between atoms: C_16  and  C_18
   12  A    between atoms: C_21  and  O_22
                            x       y       z     vdW  Elec       q    Type
                         _______ _______ _______ _____ _____    ______ ____

>  <TORSDO>
F 8

>  <SCORE>
-6.408

>  <RMSD_LB>
2.640

>  <RMSD_UB>
7.112

$$$$
CHEMBL121867
 OpenBabel10172500463D

 24 24  0  0  0  0  0  0  0  0999 V2000
  138.5760  136.9890  151.4560 N   0  0  0  0  0  0  0  0  0  0  0  0
  139.3320  138.1330  151.4960 C   0  0  0  0  0  0  0  0  0  0  0  0
  138.9460  139.2530  151.1950 O   0  0  0  0  0  0  0  0  0  0  0  0
  138.9850  136.1320  151.7190 H   0  0  0  0  0  0  0  0  0  0  0  0
  140.7280  137.8590  151.8930 C   0  0  0  0  0  3  0  0  0  0  0  0
  141.6760  137.3420  151.0840 C   0  0  0  0  0  0  0  0  0  0  0  0
  141.4390  137.0430  149.6260 C   0  0  0  0  0  1  0  0  0  0  0  0
  143.0890  137.0140  151.5700 C   0  0  0  0  0  2  0  0  0  0  0  0
  143.5510  137.8450  152.7770 C   0  0  0  0  0  2  0  0  0  0  0  0
  144.9300  138.4370  152.7100 C   0  0  0  0  0  3  0  0  0  0  0  0
  146.0190  137.7970  153.1840 C   0  0  0  0  0  0  0  0  0  0  0  0
  145.9820  136.4310  153.8240 C   0  0  0  0  0  1  0  0  0  0  0  0
  147.3920  138.4040  153.1080 C   0  0  0  0  0  1  0  0  0  0  0  0
  137.1980  137.0150  151.0380 C   0  0  0  0  0  2  0  0  0  0  0  0
  135.4740  135.1650  153.8930 C   0  0  0  0  0  0  0  0  0  0  0  0
  136.2730  136.0650  153.1810 C   0  0  0  0  0  3  0  0  0  0  0  0
  136.3580  136.0070  151.7780 C   0  0  0  0  0  0  0  0  0  0  0  0
  135.6580  135.0080  151.0930 C   0  0  0  0  0  3  0  0  0  0  0  0
  134.8590  134.1000  151.7920 C   0  0  0  0  0  3  0  0  0  0  0  0
  134.7670  134.1890  153.1830 C   0  0  0  0  0  0  0  0  0  0  0  0
  136.2580  135.9130  156.0160 C   0  0  0  0  0  1  0  0  0  0  0  0
  135.3170  135.1660  155.2560 O   0  0  0  0  0  0  0  0  0  0  0  0
  133.9750  133.3020  153.8670 O   0  0  0  0  0  0  0  0  0  0  0  0
  133.3710  132.7580  153.4010 H   0  0  0  0  0  0  0  0  0  0  0  0
  1  2  1  0  0  0  0
  1  4  1  0  0  0  0
  2  5  1  0  0  0  0
  3  2  2  0  0  0  0
  6  8  1  0  0  0  0
  6  5  2  0  0  0  0
  7  6  1  0  0  0  0
  8  9  1  0  0  0  0
 10  9  1  0  0  0  0
 10 11  2  0  0  0  0
 11 12  1  0  0  0  0
 13 11  1  0  0  0  0
 14  1  1  0  0  0  0
 14 17  1  0  0  0  0
 15 22  1  0  0  0  0
 16 15  2  0  0  0  0
 17 16  1  0  0  0  0
 18 17  2  0  0  0  0
 18 19  1  0  0  0  0
 19 20  2  0  0  0  0
 20 23  1  0  0  0  0
 20 15  1  0  0  0  0
 22 21  1  0  0  0  0
 24 23  1  0  0  0  0
M  END
>  <MODEL>
9

>  <REMARK>
 VINA RESULT:    -6.164      4.091      6.521
 INTER + INTRA:          -9.444
 INTER:                  -8.866
 INTRA:                  -0.578
 UNBOUND:                -0.578
  Name = CHEMBL121867
  12 active torsions:
  status: ('A' for Active; 'I' for Inactive)
    1  A    between atoms: C_1  and  O_2
    2  A    between atoms: O_2  and  C_3
    3  A    between atoms: C_5  and  C_6
    4  A    between atoms: C_6  and  N_7
    5  A    between atoms: C_8  and  C_10
    6  A    between atoms: C_11  and  C_12
    7  A    between atoms: C_11  and  C_13
    8  A    between atoms: C_13  and  C_14
    9  A    between atoms: C_14  and  C_15
   10  A    between atoms: C_16  and  C_17
   11  A    between atoms: C_16  and  C_18
   12  A    between atoms: C_21  and  O_22
                            x       y       z     vdW  Elec       q    Type
                         _______ _______ _______ _____ _____    ______ ____

>  <TORSDO>
F 8

>  <SCORE>
-6.164

>  <RMSD_LB>
4.091

>  <RMSD_UB>
6.521

$$$$
