CHEMBL4929463
 OpenBabel10162523593D

 20 20  0  0  0  0  0  0  0  0999 V2000
  139.3710  138.1970  154.2980 C   0  0  0  0  0  0  0  0  0  0  0  0
  140.4090  138.2110  153.3570 C   0  0  0  0  0  3  0  0  0  0  0  0
  140.1790  137.8530  152.0240 C   0  0  0  0  0  3  0  0  0  0  0  0
  138.9030  137.4690  151.6010 C   0  0  0  0  0  0  0  0  0  0  0  0
  137.8710  137.4260  152.5460 C   0  0  0  0  0  3  0  0  0  0  0  0
  138.0860  137.8040  153.8800 C   0  0  0  0  0  0  0  0  0  0  0  0
  140.1120  137.4340  156.4290 C   0  0  0  0  0  1  0  0  0  0  0  0
  139.5660  138.4730  155.6240 O   0  0  0  0  0  0  0  0  0  0  0  0
  136.9620  137.7060  154.6630 O   0  0  0  0  0  0  0  0  0  0  0  0
  136.6520  136.4100  155.1630 C   0  0  0  0  0  1  0  0  0  0  0  0
  138.6490  137.1070  150.1620 C   0  0  0  0  0  2  0  0  0  0  0  0
  137.7860  135.9590  150.0320 N   0  0  0  0  0  0  0  0  0  0  0  0
  136.5040  136.1080  149.5560 C   0  0  0  0  0  0  0  0  0  0  0  0
  136.0440  137.1900  149.2020 O   0  0  0  0  0  0  0  0  0  0  0  0
  138.1140  135.0660  150.2840 H   0  0  0  0  0  0  0  0  0  0  0  0
  135.6820  134.8340  149.5280 C   0  0  0  0  0  2  0  0  0  0  0  0
  134.8830  134.5530  150.8250 C   0  0  0  0  0  0  0  0  0  0  0  0
  134.0090  135.7630  151.2080 C   0  0  0  0  0  1  0  0  0  0  0  0
  133.9550  133.3500  150.5710 C   0  0  0  0  0  1  0  0  0  0  0  0
  135.8130  134.2100  151.9970 C   0  0  0  0  0  1  0  0  0  0  0  0
  1  8  1  0  0  0  0
  2  1  2  0  0  0  0
  3  2  1  0  0  0  0
  4  3  2  0  0  0  0
  4  5  1  0  0  0  0
  5  6  2  0  0  0  0
  6  1  1  0  0  0  0
  6  9  1  0  0  0  0
  8  7  1  0  0  0  0
  9 10  1  0  0  0  0
 11  4  1  0  0  0  0
 12 11  1  0  0  0  0
 12 15  1  0  0  0  0
 13 12  1  0  0  0  0
 14 13  2  0  0  0  0
 16 13  1  0  0  0  0
 16 17  1  0  0  0  0
 17 18  1  0  0  0  0
 17 20  1  0  0  0  0
 19 17  1  0  0  0  0
M  END
>  <MODEL>
1

>  <REMARK>
 VINA RESULT:    -5.904      0.000      0.000
 INTER + INTRA:          -8.379
 INTER:                  -7.848
 INTRA:                  -0.532
 UNBOUND:                -0.404
  Name = CHEMBL4929463
  11 active torsions:
  status: ('A' for Active; 'I' for Inactive)
    1  A    between atoms: C_1  and  O_2
    2  A    between atoms: O_2  and  C_3
    3  A    between atoms: C_6  and  C_7
    4  A    between atoms: C_7  and  N_8
    5  A    between atoms: C_9  and  C_11
    6  A    between atoms: C_11  and  C_12
    7  A    between atoms: C_12  and  C_13
    8  A    between atoms: C_12  and  C_14
    9  A    between atoms: C_12  and  C_15
   10  A    between atoms: C_17  and  O_18
   11  A    between atoms: O_18  and  C_19
                            x       y       z     vdW  Elec       q    Type
                         _______ _______ _______ _____ _____    ______ ____

>  <TORSDO>
F 6

>  <SCORE>
-5.904

>  <RMSD_LB>
0.000

>  <RMSD_UB>
0.000

$$$$
CHEMBL4929463
 OpenBabel10162523593D

 20 20  0  0  0  0  0  0  0  0999 V2000
  146.6860  141.5970  153.5830 C   0  0  0  0  0  0  0  0  0  0  0  0
  146.3520  142.2800  152.4050 C   0  0  0  0  0  3  0  0  0  0  0  0
  145.3320  141.8170  151.5670 C   0  0  0  0  0  3  0  0  0  0  0  0
  144.6230  140.6560  151.8860 C   0  0  0  0  0  0  0  0  0  0  0  0
  144.9750  139.9560  153.0460 C   0  0  0  0  0  3  0  0  0  0  0  0
  145.9810  140.4240  153.9050 C   0  0  0  0  0  0  0  0  0  0  0  0
  149.0400  141.7990  153.8890 C   0  0  0  0  0  1  0  0  0  0  0  0
  147.7220  141.9770  154.3940 O   0  0  0  0  0  0  0  0  0  0  0  0
  146.1870  139.6150  154.9960 O   0  0  0  0  0  0  0  0  0  0  0  0
  147.0320  138.4880  154.7970 C   0  0  0  0  0  1  0  0  0  0  0  0
  143.5090  140.1700  150.9990 C   0  0  0  0  0  2  0  0  0  0  0  0
  142.5340  139.3910  151.7220 N   0  0  0  0  0  0  0  0  0  0  0  0
  141.8930  138.3420  151.1060 C   0  0  0  0  0  0  0  0  0  0  0  0
  142.1240  138.0020  149.9490 O   0  0  0  0  0  0  0  0  0  0  0  0
  142.3270  139.6100  152.6590 H   0  0  0  0  0  0  0  0  0  0  0  0
  140.8470  137.6460  151.9570 C   0  0  0  0  0  2  0  0  0  0  0  0
  139.3830  137.9220  151.5320 C   0  0  0  0  0  0  0  0  0  0  0  0
  138.9100  136.8970  150.4840 C   0  0  0  0  0  1  0  0  0  0  0  0
  138.4840  137.7880  152.7770 C   0  0  0  0  0  1  0  0  0  0  0  0
  139.2180  139.3390  150.9650 C   0  0  0  0  0  1  0  0  0  0  0  0
  1  6  1  0  0  0  0
  1  8  1  0  0  0  0
  2  1  2  0  0  0  0
  3  4  2  0  0  0  0
  3  2  1  0  0  0  0
  4  5  1  0  0  0  0
  5  6  2  0  0  0  0
  6  9  1  0  0  0  0
  7  8  1  0  0  0  0
 10  9  1  0  0  0  0
 11 12  1  0  0  0  0
 11  4  1  0  0  0  0
 12 15  1  0  0  0  0
 13 12  1  0  0  0  0
 13 16  1  0  0  0  0
 14 13  2  0  0  0  0
 17 16  1  0  0  0  0
 17 19  1  0  0  0  0
 18 17  1  0  0  0  0
 20 17  1  0  0  0  0
M  END
>  <MODEL>
2

>  <REMARK>
 VINA RESULT:    -5.849      5.584      7.415
 INTER + INTRA:          -8.304
 INTER:                  -7.916
 INTRA:                  -0.388
 UNBOUND:                -0.404
  Name = CHEMBL4929463
  11 active torsions:
  status: ('A' for Active; 'I' for Inactive)
    1  A    between atoms: C_1  and  O_2
    2  A    between atoms: O_2  and  C_3
    3  A    between atoms: C_6  and  C_7
    4  A    between atoms: C_7  and  N_8
    5  A    between atoms: C_9  and  C_11
    6  A    between atoms: C_11  and  C_12
    7  A    between atoms: C_12  and  C_13
    8  A    between atoms: C_12  and  C_14
    9  A    between atoms: C_12  and  C_15
   10  A    between atoms: C_17  and  O_18
   11  A    between atoms: O_18  and  C_19
                            x       y       z     vdW  Elec       q    Type
                         _______ _______ _______ _____ _____    ______ ____

>  <TORSDO>
F 6

>  <SCORE>
-5.849

>  <RMSD_LB>
5.584

>  <RMSD_UB>
7.415

$$$$
CHEMBL4929463
 OpenBabel10162523593D

 20 20  0  0  0  0  0  0  0  0999 V2000
  146.2950  141.6600  153.3750 C   0  0  0  0  0  0  0  0  0  0  0  0
  146.1260  142.3050  152.1430 C   0  0  0  0  0  3  0  0  0  0  0  0
  145.2560  141.7940  151.1740 C   0  0  0  0  0  3  0  0  0  0  0  0
  144.5360  140.6210  151.4130 C   0  0  0  0  0  0  0  0  0  0  0  0
  144.7260  139.9580  152.6320 C   0  0  0  0  0  3  0  0  0  0  0  0
  145.5790  140.4740  153.6200 C   0  0  0  0  0  0  0  0  0  0  0  0
  148.5460  141.7020  154.1550 C   0  0  0  0  0  1  0  0  0  0  0  0
  147.1860  142.0870  154.3220 O   0  0  0  0  0  0  0  0  0  0  0  0
  145.6380  139.6970  154.7500 O   0  0  0  0  0  0  0  0  0  0  0  0
  146.4620  138.5400  154.6800 C   0  0  0  0  0  1  0  0  0  0  0  0
  143.5810  140.0830  150.3820 C   0  0  0  0  0  2  0  0  0  0  0  0
  143.5050  138.6430  150.4060 N   0  0  0  0  0  0  0  0  0  0  0  0
  144.2680  137.8960  149.5390 C   0  0  0  0  0  0  0  0  0  0  0  0
  145.0520  138.3950  148.7360 O   0  0  0  0  0  0  0  0  0  0  0  0
  142.9070  138.1930  151.0450 H   0  0  0  0  0  0  0  0  0  0  0  0
  144.0480  136.3970  149.6250 C   0  0  0  0  0  2  0  0  0  0  0  0
  142.9260  135.8570  148.7030 C   0  0  0  0  0  0  0  0  0  0  0  0
  143.0850  136.3920  147.2670 C   0  0  0  0  0  1  0  0  0  0  0  0
  143.0330  134.3200  148.6600 C   0  0  0  0  0  1  0  0  0  0  0  0
  141.5330  136.2320  149.2310 C   0  0  0  0  0  1  0  0  0  0  0  0
  1  6  1  0  0  0  0
  1  8  1  0  0  0  0
  2  1  2  0  0  0  0
  3  4  2  0  0  0  0
  3  2  1  0  0  0  0
  4  5  1  0  0  0  0
  5  6  2  0  0  0  0
  6  9  1  0  0  0  0
  7  8  1  0  0  0  0
 10  9  1  0  0  0  0
 11 12  1  0  0  0  0
 11  4  1  0  0  0  0
 12 15  1  0  0  0  0
 13 16  1  0  0  0  0
 13 12  1  0  0  0  0
 14 13  2  0  0  0  0
 17 20  1  0  0  0  0
 17 16  1  0  0  0  0
 18 17  1  0  0  0  0
 19 17  1  0  0  0  0
M  END
>  <MODEL>
3

>  <REMARK>
 VINA RESULT:    -5.435      6.411      8.119
 INTER + INTRA:          -7.745
 INTER:                  -7.409
 INTRA:                  -0.337
 UNBOUND:                -0.404
  Name = CHEMBL4929463
  11 active torsions:
  status: ('A' for Active; 'I' for Inactive)
    1  A    between atoms: C_1  and  O_2
    2  A    between atoms: O_2  and  C_3
    3  A    between atoms: C_6  and  C_7
    4  A    between atoms: C_7  and  N_8
    5  A    between atoms: C_9  and  C_11
    6  A    between atoms: C_11  and  C_12
    7  A    between atoms: C_12  and  C_13
    8  A    between atoms: C_12  and  C_14
    9  A    between atoms: C_12  and  C_15
   10  A    between atoms: C_17  and  O_18
   11  A    between atoms: O_18  and  C_19
                            x       y       z     vdW  Elec       q    Type
                         _______ _______ _______ _____ _____    ______ ____

>  <TORSDO>
F 6

>  <SCORE>
-5.435

>  <RMSD_LB>
6.411

>  <RMSD_UB>
8.119

$$$$
CHEMBL4929463
 OpenBabel10162523593D

 20 20  0  0  0  0  0  0  0  0999 V2000
  139.8430  137.9650  153.1090 C   0  0  0  0  0  0  0  0  0  0  0  0
  140.5420  137.7350  151.9160 C   0  0  0  0  0  3  0  0  0  0  0  0
  139.8730  137.3410  150.7520 C   0  0  0  0  0  3  0  0  0  0  0  0
  138.4870  137.1640  150.7550 C   0  0  0  0  0  0  0  0  0  0  0  0
  137.7900  137.3640  151.9530 C   0  0  0  0  0  3  0  0  0  0  0  0
  138.4490  137.7810  153.1200 C   0  0  0  0  0  0  0  0  0  0  0  0
  141.8840  138.1760  154.3190 C   0  0  0  0  0  1  0  0  0  0  0  0
  140.4650  138.2850  154.2850 O   0  0  0  0  0  0  0  0  0  0  0  0
  137.6090  137.9330  154.1960 O   0  0  0  0  0  0  0  0  0  0  0  0
  136.8730  136.7810  154.5910 C   0  0  0  0  0  1  0  0  0  0  0  0
  137.7620  136.7630  149.4980 C   0  0  0  0  0  2  0  0  0  0  0  0
  136.8110  135.7040  149.7300 N   0  0  0  0  0  0  0  0  0  0  0  0
  135.4930  135.8690  149.3710 C   0  0  0  0  0  0  0  0  0  0  0  0
  135.0690  136.8850  148.8270 O   0  0  0  0  0  0  0  0  0  0  0  0
  137.1040  134.8620  150.1440 H   0  0  0  0  0  0  0  0  0  0  0  0
  134.5860  134.7060  149.7260 C   0  0  0  0  0  2  0  0  0  0  0  0
  134.2440  133.7700  148.5400 C   0  0  0  0  0  0  0  0  0  0  0  0
  134.2050  132.2980  148.9920 C   0  0  0  0  0  1  0  0  0  0  0  0
  132.8470  134.1490  148.0110 C   0  0  0  0  0  1  0  0  0  0  0  0
  135.2550  133.9200  147.3940 C   0  0  0  0  0  1  0  0  0  0  0  0
  1  6  1  0  0  0  0
  1  8  1  0  0  0  0
  2  1  2  0  0  0  0
  3  4  2  0  0  0  0
  3  2  1  0  0  0  0
  4  5  1  0  0  0  0
  5  6  2  0  0  0  0
  6  9  1  0  0  0  0
  8  7  1  0  0  0  0
  9 10  1  0  0  0  0
 11 12  1  0  0  0  0
 11  4  1  0  0  0  0
 12 15  1  0  0  0  0
 13 16  1  0  0  0  0
 13 12  1  0  0  0  0
 14 13  2  0  0  0  0
 17 18  1  0  0  0  0
 17 16  1  0  0  0  0
 19 17  1  0  0  0  0
 20 17  1  0  0  0  0
M  END
>  <MODEL>
4

>  <REMARK>
 VINA RESULT:    -5.359      1.424      2.042
 INTER + INTRA:          -7.643
 INTER:                  -7.313
 INTRA:                  -0.330
 UNBOUND:                -0.404
  Name = CHEMBL4929463
  11 active torsions:
  status: ('A' for Active; 'I' for Inactive)
    1  A    between atoms: C_1  and  O_2
    2  A    between atoms: O_2  and  C_3
    3  A    between atoms: C_6  and  C_7
    4  A    between atoms: C_7  and  N_8
    5  A    between atoms: C_9  and  C_11
    6  A    between atoms: C_11  and  C_12
    7  A    between atoms: C_12  and  C_13
    8  A    between atoms: C_12  and  C_14
    9  A    between atoms: C_12  and  C_15
   10  A    between atoms: C_17  and  O_18
   11  A    between atoms: O_18  and  C_19
                            x       y       z     vdW  Elec       q    Type
                         _______ _______ _______ _____ _____    ______ ____

>  <TORSDO>
F 6

>  <SCORE>
-5.359

>  <RMSD_LB>
1.424

>  <RMSD_UB>
2.042

$$$$
CHEMBL4929463
 OpenBabel10162523593D

 20 20  0  0  0  0  0  0  0  0999 V2000
  147.0990  137.7800  154.2640 C   0  0  0  0  0  0  0  0  0  0  0  0
  146.2990  136.6430  154.0940 C   0  0  0  0  0  3  0  0  0  0  0  0
  144.9170  136.7540  153.9060 C   0  0  0  0  0  3  0  0  0  0  0  0
  144.3010  138.0090  153.8870 C   0  0  0  0  0  0  0  0  0  0  0  0
  145.0950  139.1450  154.0860 C   0  0  0  0  0  3  0  0  0  0  0  0
  146.4850  139.0450  154.2530 C   0  0  0  0  0  0  0  0  0  0  0  0
  149.3130  137.6370  153.3960 C   0  0  0  0  0  1  0  0  0  0  0  0
  148.4420  137.7130  154.5190 O   0  0  0  0  0  0  0  0  0  0  0  0
  147.1010  140.2600  154.4290 O   0  0  0  0  0  0  0  0  0  0  0  0
  146.4560  141.3870  153.8480 C   0  0  0  0  0  1  0  0  0  0  0  0
  142.8180  138.1320  153.6600 C   0  0  0  0  0  2  0  0  0  0  0  0
  142.3730  137.3620  152.5250 N   0  0  0  0  0  0  0  0  0  0  0  0
  142.1550  137.9790  151.3150 C   0  0  0  0  0  0  0  0  0  0  0  0
  142.3450  139.1770  151.1300 O   0  0  0  0  0  0  0  0  0  0  0  0
  142.2250  136.3930  152.6150 H   0  0  0  0  0  0  0  0  0  0  0  0
  141.6290  137.0680  150.2210 C   0  0  0  0  0  2  0  0  0  0  0  0
  140.1430  137.3000  149.8480 C   0  0  0  0  0  0  0  0  0  0  0  0
  139.9860  138.5480  148.9590 C   0  0  0  0  0  1  0  0  0  0  0  0
  139.6470  136.0760  149.0550 C   0  0  0  0  0  1  0  0  0  0  0  0
  139.2660  137.4570  151.0990 C   0  0  0  0  0  1  0  0  0  0  0  0
  1  8  1  0  0  0  0
  2  1  2  0  0  0  0
  3  2  1  0  0  0  0
  4  3  2  0  0  0  0
  4  5  1  0  0  0  0
  5  6  2  0  0  0  0
  6  1  1  0  0  0  0
  6  9  1  0  0  0  0
  7  8  1  0  0  0  0
 10  9  1  0  0  0  0
 11  4  1  0  0  0  0
 12 15  1  0  0  0  0
 12 11  1  0  0  0  0
 13 12  1  0  0  0  0
 14 13  2  0  0  0  0
 16 13  1  0  0  0  0
 17 16  1  0  0  0  0
 17 20  1  0  0  0  0
 18 17  1  0  0  0  0
 19 17  1  0  0  0  0
M  END
>  <MODEL>
5

>  <REMARK>
 VINA RESULT:    -5.140      5.318      7.371
 INTER + INTRA:          -7.346
 INTER:                  -6.956
 INTRA:                  -0.391
 UNBOUND:                -0.404
  Name = CHEMBL4929463
  11 active torsions:
  status: ('A' for Active; 'I' for Inactive)
    1  A    between atoms: C_1  and  O_2
    2  A    between atoms: O_2  and  C_3
    3  A    between atoms: C_6  and  C_7
    4  A    between atoms: C_7  and  N_8
    5  A    between atoms: C_9  and  C_11
    6  A    between atoms: C_11  and  C_12
    7  A    between atoms: C_12  and  C_13
    8  A    between atoms: C_12  and  C_14
    9  A    between atoms: C_12  and  C_15
   10  A    between atoms: C_17  and  O_18
   11  A    between atoms: O_18  and  C_19
                            x       y       z     vdW  Elec       q    Type
                         _______ _______ _______ _____ _____    ______ ____

>  <TORSDO>
F 6

>  <SCORE>
-5.140

>  <RMSD_LB>
5.318

>  <RMSD_UB>
7.371

$$$$
CHEMBL4929463
 OpenBabel10162523593D

 20 20  0  0  0  0  0  0  0  0999 V2000
  147.9160  140.8580  154.2280 C   0  0  0  0  0  0  0  0  0  0  0  0
  148.2200  139.5800  154.7140 C   0  0  0  0  0  3  0  0  0  0  0  0
  147.2700  138.5530  154.6890 C   0  0  0  0  0  3  0  0  0  0  0  0
  145.9900  138.7820  154.1780 C   0  0  0  0  0  0  0  0  0  0  0  0
  145.6750  140.0670  153.7190 C   0  0  0  0  0  3  0  0  0  0  0  0
  146.6270  141.0970  153.7190 C   0  0  0  0  0  0  0  0  0  0  0  0
  149.5680  142.1840  153.1370 C   0  0  0  0  0  1  0  0  0  0  0  0
  148.7920  141.9080  154.2980 O   0  0  0  0  0  0  0  0  0  0  0  0
  146.1460  142.2860  153.2280 O   0  0  0  0  0  0  0  0  0  0  0  0
  145.7160  142.2820  151.8720 C   0  0  0  0  0  1  0  0  0  0  0  0
  144.9750  137.6730  154.1270 C   0  0  0  0  0  2  0  0  0  0  0  0
  144.4380  137.4840  152.8010 N   0  0  0  0  0  0  0  0  0  0  0  0
  143.0830  137.5850  152.5840 C   0  0  0  0  0  0  0  0  0  0  0  0
  142.2810  137.8570  153.4730 O   0  0  0  0  0  0  0  0  0  0  0  0
  145.0410  137.2840  152.0500 H   0  0  0  0  0  0  0  0  0  0  0  0
  142.6430  137.3030  151.1600 C   0  0  0  0  0  2  0  0  0  0  0  0
  142.8700  138.4740  150.1710 C   0  0  0  0  0  0  0  0  0  0  0  0
  144.1950  138.3000  149.4040 C   0  0  0  0  0  1  0  0  0  0  0  0
  141.7170  138.4750  149.1490 C   0  0  0  0  0  1  0  0  0  0  0  0
  142.8790  139.8280  150.8950 C   0  0  0  0  0  1  0  0  0  0  0  0
  1  8  1  0  0  0  0
  1  2  1  0  0  0  0
  3  2  2  0  0  0  0
  4  3  1  0  0  0  0
  5  6  1  0  0  0  0
  5  4  2  0  0  0  0
  6  1  2  0  0  0  0
  7  8  1  0  0  0  0
  9  6  1  0  0  0  0
 10  9  1  0  0  0  0
 11  4  1  0  0  0  0
 12 11  1  0  0  0  0
 13 12  1  0  0  0  0
 13 14  2  0  0  0  0
 15 12  1  0  0  0  0
 16 13  1  0  0  0  0
 17 20  1  0  0  0  0
 17 16  1  0  0  0  0
 18 17  1  0  0  0  0
 19 17  1  0  0  0  0
M  END
>  <MODEL>
6

>  <REMARK>
 VINA RESULT:    -5.084      6.319      8.929
 INTER + INTRA:          -7.271
 INTER:                  -6.698
 INTRA:                  -0.573
 UNBOUND:                -0.404
  Name = CHEMBL4929463
  11 active torsions:
  status: ('A' for Active; 'I' for Inactive)
    1  A    between atoms: C_1  and  O_2
    2  A    between atoms: O_2  and  C_3
    3  A    between atoms: C_6  and  C_7
    4  A    between atoms: C_7  and  N_8
    5  A    between atoms: C_9  and  C_11
    6  A    between atoms: C_11  and  C_12
    7  A    between atoms: C_12  and  C_13
    8  A    between atoms: C_12  and  C_14
    9  A    between atoms: C_12  and  C_15
   10  A    between atoms: C_17  and  O_18
   11  A    between atoms: O_18  and  C_19
                            x       y       z     vdW  Elec       q    Type
                         _______ _______ _______ _____ _____    ______ ____

>  <TORSDO>
F 6

>  <SCORE>
-5.084

>  <RMSD_LB>
6.319

>  <RMSD_UB>
8.929

$$$$
CHEMBL4929463
 OpenBabel10162523593D

 20 20  0  0  0  0  0  0  0  0999 V2000
  147.3540  137.5500  154.3090 C   0  0  0  0  0  0  0  0  0  0  0  0
  146.3440  136.5900  154.1620 C   0  0  0  0  0  3  0  0  0  0  0  0
  145.2650  136.8060  153.2970 C   0  0  0  0  0  3  0  0  0  0  0  0
  145.1690  137.9900  152.5620 C   0  0  0  0  0  0  0  0  0  0  0  0
  146.1620  138.9630  152.7310 C   0  0  0  0  0  3  0  0  0  0  0  0
  147.2600  138.7470  153.5780 C   0  0  0  0  0  0  0  0  0  0  0  0
  148.1560  137.8200  156.5370 C   0  0  0  0  0  1  0  0  0  0  0  0
  148.3890  137.4090  155.1940 O   0  0  0  0  0  0  0  0  0  0  0  0
  148.1350  139.8040  153.6150 O   0  0  0  0  0  0  0  0  0  0  0  0
  147.6360  141.0200  154.1610 C   0  0  0  0  0  1  0  0  0  0  0  0
  144.0220  138.2130  151.6130 C   0  0  0  0  0  2  0  0  0  0  0  0
  144.4690  138.5040  150.2740 N   0  0  0  0  0  0  0  0  0  0  0  0
  144.1900  139.7230  149.7020 C   0  0  0  0  0  0  0  0  0  0  0  0
  143.5850  140.6150  150.2880 O   0  0  0  0  0  0  0  0  0  0  0  0
  144.9760  137.8300  149.7670 H   0  0  0  0  0  0  0  0  0  0  0  0
  144.6620  139.8780  148.2680 C   0  0  0  0  0  2  0  0  0  0  0  0
  146.1330  140.3410  148.1200 C   0  0  0  0  0  0  0  0  0  0  0  0
  146.5830  141.1510  149.3500 C   0  0  0  0  0  1  0  0  0  0  0  0
  147.0260  139.0900  148.0130 C   0  0  0  0  0  1  0  0  0  0  0  0
  146.3320  141.1890  146.8550 C   0  0  0  0  0  1  0  0  0  0  0  0
  1  8  1  0  0  0  0
  2  1  1  0  0  0  0
  3  2  2  0  0  0  0
  4  5  2  0  0  0  0
  4  3  1  0  0  0  0
  5  6  1  0  0  0  0
  6  9  1  0  0  0  0
  6  1  2  0  0  0  0
  8  7  1  0  0  0  0
  9 10  1  0  0  0  0
 11  4  1  0  0  0  0
 12 11  1  0  0  0  0
 13 12  1  0  0  0  0
 13 14  2  0  0  0  0
 15 12  1  0  0  0  0
 16 13  1  0  0  0  0
 17 16  1  0  0  0  0
 17 18  1  0  0  0  0
 19 17  1  0  0  0  0
 20 17  1  0  0  0  0
M  END
>  <MODEL>
7

>  <REMARK>
 VINA RESULT:    -4.958      7.648      9.820
 INTER + INTRA:          -7.100
 INTER:                  -6.569
 INTRA:                  -0.532
 UNBOUND:                -0.404
  Name = CHEMBL4929463
  11 active torsions:
  status: ('A' for Active; 'I' for Inactive)
    1  A    between atoms: C_1  and  O_2
    2  A    between atoms: O_2  and  C_3
    3  A    between atoms: C_6  and  C_7
    4  A    between atoms: C_7  and  N_8
    5  A    between atoms: C_9  and  C_11
    6  A    between atoms: C_11  and  C_12
    7  A    between atoms: C_12  and  C_13
    8  A    between atoms: C_12  and  C_14
    9  A    between atoms: C_12  and  C_15
   10  A    between atoms: C_17  and  O_18
   11  A    between atoms: O_18  and  C_19
                            x       y       z     vdW  Elec       q    Type
                         _______ _______ _______ _____ _____    ______ ____

>  <TORSDO>
F 6

>  <SCORE>
-4.958

>  <RMSD_LB>
7.648

>  <RMSD_UB>
9.820

$$$$
CHEMBL4929463
 OpenBabel10162523593D

 20 20  0  0  0  0  0  0  0  0999 V2000
  142.2160  138.6960  150.7590 C   0  0  0  0  0  0  0  0  0  0  0  0
  142.8060  139.6310  149.8980 C   0  0  0  0  0  3  0  0  0  0  0  0
  143.8520  140.4520  150.3320 C   0  0  0  0  0  3  0  0  0  0  0  0
  144.3310  140.3600  151.6410 C   0  0  0  0  0  0  0  0  0  0  0  0
  143.7230  139.4470  152.5120 C   0  0  0  0  0  3  0  0  0  0  0  0
  142.6890  138.6030  152.0800 C   0  0  0  0  0  0  0  0  0  0  0  0
  141.4280  136.6810  149.7600 C   0  0  0  0  0  1  0  0  0  0  0  0
  141.1460  137.9230  150.3960 O   0  0  0  0  0  0  0  0  0  0  0  0
  142.2170  137.7700  153.0650 O   0  0  0  0  0  0  0  0  0  0  0  0
  141.1670  138.2820  153.8770 C   0  0  0  0  0  1  0  0  0  0  0  0
  145.4730  141.2250  152.1030 C   0  0  0  0  0  2  0  0  0  0  0  0
  146.3650  140.5240  152.9930 N   0  0  0  0  0  0  0  0  0  0  0  0
  147.6800  140.3300  152.6410 C   0  0  0  0  0  0  0  0  0  0  0  0
  148.1620  140.7510  151.5930 O   0  0  0  0  0  0  0  0  0  0  0  0
  146.0330  140.1830  153.8540 H   0  0  0  0  0  0  0  0  0  0  0  0
  148.4940  139.5240  153.6360 C   0  0  0  0  0  2  0  0  0  0  0  0
  148.3930  137.9880  153.4580 C   0  0  0  0  0  0  0  0  0  0  0  0
  149.7920  137.3490  153.3780 C   0  0  0  0  0  1  0  0  0  0  0  0
  147.6660  137.4060  154.6860 C   0  0  0  0  0  1  0  0  0  0  0  0
  147.5950  137.6180  152.2000 C   0  0  0  0  0  1  0  0  0  0  0  0
  1  6  1  0  0  0  0
  2  3  1  0  0  0  0
  2  1  2  0  0  0  0
  3  4  2  0  0  0  0
  4 11  1  0  0  0  0
  4  5  1  0  0  0  0
  6  5  2  0  0  0  0
  6  9  1  0  0  0  0
  7  8  1  0  0  0  0
  8  1  1  0  0  0  0
  9 10  1  0  0  0  0
 11 12  1  0  0  0  0
 12 15  1  0  0  0  0
 13 12  1  0  0  0  0
 13 16  1  0  0  0  0
 14 13  2  0  0  0  0
 17 16  1  0  0  0  0
 17 19  1  0  0  0  0
 18 17  1  0  0  0  0
 20 17  1  0  0  0  0
M  END
>  <MODEL>
8

>  <REMARK>
 VINA RESULT:    -4.864      6.321      9.782
 INTER + INTRA:          -6.974
 INTER:                  -6.512
 INTRA:                  -0.462
 UNBOUND:                -0.404
  Name = CHEMBL4929463
  11 active torsions:
  status: ('A' for Active; 'I' for Inactive)
    1  A    between atoms: C_1  and  O_2
    2  A    between atoms: O_2  and  C_3
    3  A    between atoms: C_6  and  C_7
    4  A    between atoms: C_7  and  N_8
    5  A    between atoms: C_9  and  C_11
    6  A    between atoms: C_11  and  C_12
    7  A    between atoms: C_12  and  C_13
    8  A    between atoms: C_12  and  C_14
    9  A    between atoms: C_12  and  C_15
   10  A    between atoms: C_17  and  O_18
   11  A    between atoms: O_18  and  C_19
                            x       y       z     vdW  Elec       q    Type
                         _______ _______ _______ _____ _____    ______ ____

>  <TORSDO>
F 6

>  <SCORE>
-4.864

>  <RMSD_LB>
6.321

>  <RMSD_UB>
9.782

$$$$
CHEMBL4929463
 OpenBabel10162523593D

 20 20  0  0  0  0  0  0  0  0999 V2000
  146.6830  140.8030  154.0210 C   0  0  0  0  0  0  0  0  0  0  0  0
  146.6100  139.5850  154.7100 C   0  0  0  0  0  3  0  0  0  0  0  0
  145.6740  138.6090  154.3530 C   0  0  0  0  0  3  0  0  0  0  0  0
  144.7850  138.8300  153.2970 C   0  0  0  0  0  0  0  0  0  0  0  0
  144.8370  140.0580  152.6260 C   0  0  0  0  0  3  0  0  0  0  0  0
  145.7870  141.0340  152.9620 C   0  0  0  0  0  0  0  0  0  0  0  0
  148.8580  141.7630  153.8560 C   0  0  0  0  0  1  0  0  0  0  0  0
  147.5370  141.8110  154.3810 O   0  0  0  0  0  0  0  0  0  0  0  0
  145.6950  142.1710  152.1970 O   0  0  0  0  0  0  0  0  0  0  0  0
  145.2540  141.9950  150.8550 C   0  0  0  0  0  1  0  0  0  0  0  0
  143.7940  137.7710  152.8960 C   0  0  0  0  0  2  0  0  0  0  0  0
  144.1510  137.1310  151.6540 N   0  0  0  0  0  0  0  0  0  0  0  0
  143.1760  136.7930  150.7450 C   0  0  0  0  0  0  0  0  0  0  0  0
  141.9850  137.0320  150.9210 O   0  0  0  0  0  0  0  0  0  0  0  0
  145.0950  136.9350  151.4560 H   0  0  0  0  0  0  0  0  0  0  0  0
  143.6790  136.0690  149.5100 C   0  0  0  0  0  2  0  0  0  0  0  0
  144.3730  136.9800  148.4670 C   0  0  0  0  0  0  0  0  0  0  0  0
  145.8850  137.0820  148.7430 C   0  0  0  0  0  1  0  0  0  0  0  0
  144.1780  136.3540  147.0720 C   0  0  0  0  0  1  0  0  0  0  0  0
  143.7640  138.3900  148.4560 C   0  0  0  0  0  1  0  0  0  0  0  0
  1  8  1  0  0  0  0
  1  2  1  0  0  0  0
  3  2  2  0  0  0  0
  4  3  1  0  0  0  0
  5  6  1  0  0  0  0
  5  4  2  0  0  0  0
  6  1  2  0  0  0  0
  7  8  1  0  0  0  0
  9  6  1  0  0  0  0
 10  9  1  0  0  0  0
 11  4  1  0  0  0  0
 12 11  1  0  0  0  0
 13 14  2  0  0  0  0
 13 12  1  0  0  0  0
 15 12  1  0  0  0  0
 16 13  1  0  0  0  0
 17 18  1  0  0  0  0
 17 16  1  0  0  0  0
 19 17  1  0  0  0  0
 20 17  1  0  0  0  0
M  END
>  <MODEL>
9

>  <REMARK>
 VINA RESULT:    -4.635      6.546      8.604
 INTER + INTRA:          -6.664
 INTER:                  -6.260
 INTRA:                  -0.404
 UNBOUND:                -0.404
  Name = CHEMBL4929463
  11 active torsions:
  status: ('A' for Active; 'I' for Inactive)
    1  A    between atoms: C_1  and  O_2
    2  A    between atoms: O_2  and  C_3
    3  A    between atoms: C_6  and  C_7
    4  A    between atoms: C_7  and  N_8
    5  A    between atoms: C_9  and  C_11
    6  A    between atoms: C_11  and  C_12
    7  A    between atoms: C_12  and  C_13
    8  A    between atoms: C_12  and  C_14
    9  A    between atoms: C_12  and  C_15
   10  A    between atoms: C_17  and  O_18
   11  A    between atoms: O_18  and  C_19
                            x       y       z     vdW  Elec       q    Type
                         _______ _______ _______ _____ _____    ______ ____

>  <TORSDO>
F 6

>  <SCORE>
-4.635

>  <RMSD_LB>
6.546

>  <RMSD_UB>
8.604

$$$$
