CHEMBL277440
 OpenBabel10162523493D

 19 19  0  0  0  0  0  0  0  0999 V2000
  136.9600  135.7360  156.6910 C   0  0  0  0  0  0  0  0  0  0  0  0
  136.5380  135.4980  158.0020 C   0  0  0  0  0  3  0  0  0  0  0  0
  135.2710  134.9720  158.2480 C   0  0  0  0  0  3  0  0  0  0  0  0
  134.4120  134.6710  157.1860 C   0  0  0  0  0  0  0  0  0  0  0  0
  134.8120  134.9020  155.8640 C   0  0  0  0  0  0  0  0  0  0  0  0
  136.0860  135.4420  155.6340 C   0  0  0  0  0  3  0  0  0  0  0  0
  133.1850  134.1450  157.4820 O   0  0  0  0  0  0  0  0  0  0  0  0
  132.5880  134.6230  158.0250 H   0  0  0  0  0  0  0  0  0  0  0  0
  134.1110  134.6630  154.7120 O   0  0  0  0  0  0  0  0  0  0  0  0
  133.9560  135.7370  153.7960 C   0  0  0  0  0  1  0  0  0  0  0  0
  138.3450  136.2670  156.4170 C   0  0  0  0  0  2  0  0  0  0  0  0
  138.4020  137.7860  156.5470 C   0  0  0  0  0  2  0  0  0  0  0  0
  137.7770  138.4550  155.3380 C   0  0  0  0  0  0  0  0  0  0  0  0
  136.9230  139.3280  155.4360 O   0  0  0  0  0  0  0  0  0  0  0  0
  139.5680  138.2270  153.6700 C   0  0  0  0  0  3  0  0  0  0  0  0
  138.2860  138.0150  154.0060 C   0  0  0  0  0  3  0  0  0  0  0  0
  140.1520  137.8210  152.3500 C   0  0  0  0  0  2  0  0  0  0  0  0
  138.4870  137.0520  150.6300 C   0  0  0  0  0  1  0  0  0  0  0  0
  139.2570  138.2400  151.1850 C   0  0  0  0  0  2  0  0  0  0  0  0
  1  2  1  0  0  0  0
  2  3  2  0  0  0  0
  4  7  1  0  0  0  0
  4  3  1  0  0  0  0
  5  4  2  0  0  0  0
  6  5  1  0  0  0  0
  6  1  2  0  0  0  0
  7  8  1  0  0  0  0
  9  5  1  0  0  0  0
 10  9  1  0  0  0  0
 11 12  1  0  0  0  0
 11  1  1  0  0  0  0
 13 14  2  0  0  0  0
 13 12  1  0  0  0  0
 15 16  2  0  0  0  0
 16 13  1  0  0  0  0
 17 15  1  0  0  0  0
 18 19  1  0  0  0  0
 19 17  1  0  0  0  0
M  END
>  <MODEL>
1

>  <REMARK>
 VINA RESULT:    -6.170      0.000      0.000
 INTER + INTRA:          -9.585
 INTER:                  -9.004
 INTRA:                  -0.582
 UNBOUND:                -0.710
  Name = CHEMBL277440
  10 active torsions:
  status: ('A' for Active; 'I' for Inactive)
    1  A    between atoms: C_1  and  C_2
    2  A    between atoms: C_2  and  C_3
    3  A    between atoms: C_3  and  C_4
    4  A    between atoms: C_5  and  C_6
    5  A    between atoms: C_6  and  C_8
    6  A    between atoms: C_8  and  C_9
    7  A    between atoms: C_9  and  C_10
    8  A    between atoms: C_13  and  O_14
    9  A    between atoms: C_15  and  O_16
   10  A    between atoms: O_16  and  C_17
                            x       y       z     vdW  Elec       q    Type
                         _______ _______ _______ _____ _____    ______ ____

>  <TORSDO>
F 8

>  <SCORE>
-6.170

>  <RMSD_LB>
0.000

>  <RMSD_UB>
0.000

$$$$
CHEMBL277440
 OpenBabel10162523493D

 19 19  0  0  0  0  0  0  0  0999 V2000
  137.8620  137.4300  152.9060 C   0  0  0  0  0  0  0  0  0  0  0  0
  138.8820  138.0500  152.1800 C   0  0  0  0  0  3  0  0  0  0  0  0
  139.8520  138.8050  152.8360 C   0  0  0  0  0  3  0  0  0  0  0  0
  139.8180  138.9450  154.2280 C   0  0  0  0  0  0  0  0  0  0  0  0
  138.8050  138.3340  154.9760 C   0  0  0  0  0  0  0  0  0  0  0  0
  137.8300  137.5860  154.3000 C   0  0  0  0  0  3  0  0  0  0  0  0
  140.8010  139.6860  154.8220 O   0  0  0  0  0  0  0  0  0  0  0  0
  141.0110  140.5390  154.4930 H   0  0  0  0  0  0  0  0  0  0  0  0
  138.6220  138.3570  156.3330 O   0  0  0  0  0  0  0  0  0  0  0  0
  137.3530  137.9620  156.8370 C   0  0  0  0  0  1  0  0  0  0  0  0
  136.8330  136.5780  152.2050 C   0  0  0  0  0  2  0  0  0  0  0  0
  136.0740  135.6890  153.1860 C   0  0  0  0  0  2  0  0  0  0  0  0
  134.5770  135.8590  153.0200 C   0  0  0  0  0  0  0  0  0  0  0  0
  133.9070  136.5700  153.7610 O   0  0  0  0  0  0  0  0  0  0  0  0
  134.3220  133.8760  151.5890 C   0  0  0  0  0  3  0  0  0  0  0  0
  133.9550  135.1350  151.8720 C   0  0  0  0  0  3  0  0  0  0  0  0
  133.7500  133.0860  150.4500 C   0  0  0  0  0  2  0  0  0  0  0  0
  132.7310  133.9570  148.3230 C   0  0  0  0  0  1  0  0  0  0  0  0
  132.5480  133.7900  149.8240 C   0  0  0  0  0  2  0  0  0  0  0  0
  1  6  1  0  0  0  0
  2  3  1  0  0  0  0
  2  1  2  0  0  0  0
  3  4  2  0  0  0  0
  4  7  1  0  0  0  0
  4  5  1  0  0  0  0
  5  9  1  0  0  0  0
  6  5  2  0  0  0  0
  8  7  1  0  0  0  0
  9 10  1  0  0  0  0
 11  1  1  0  0  0  0
 11 12  1  0  0  0  0
 13 12  1  0  0  0  0
 13 14  2  0  0  0  0
 15 16  2  0  0  0  0
 16 13  1  0  0  0  0
 17 15  1  0  0  0  0
 18 19  1  0  0  0  0
 19 17  1  0  0  0  0
M  END
>  <MODEL>
2

>  <REMARK>
 VINA RESULT:    -6.142      2.696      6.361
 INTER + INTRA:          -9.545
 INTER:                  -8.969
 INTRA:                  -0.576
 UNBOUND:                -0.710
  Name = CHEMBL277440
  10 active torsions:
  status: ('A' for Active; 'I' for Inactive)
    1  A    between atoms: C_1  and  C_2
    2  A    between atoms: C_2  and  C_3
    3  A    between atoms: C_3  and  C_4
    4  A    between atoms: C_5  and  C_6
    5  A    between atoms: C_6  and  C_8
    6  A    between atoms: C_8  and  C_9
    7  A    between atoms: C_9  and  C_10
    8  A    between atoms: C_13  and  O_14
    9  A    between atoms: C_15  and  O_16
   10  A    between atoms: O_16  and  C_17
                            x       y       z     vdW  Elec       q    Type
                         _______ _______ _______ _____ _____    ______ ____

>  <TORSDO>
F 8

>  <SCORE>
-6.142

>  <RMSD_LB>
2.696

>  <RMSD_UB>
6.361

$$$$
CHEMBL277440
 OpenBabel10162523493D

 19 19  0  0  0  0  0  0  0  0999 V2000
  146.4890  140.4330  154.1290 C   0  0  0  0  0  0  0  0  0  0  0  0
  145.1560  140.2350  153.7620 C   0  0  0  0  0  3  0  0  0  0  0  0
  144.6000  138.9570  153.7950 C   0  0  0  0  0  3  0  0  0  0  0  0
  145.3700  137.8610  154.2030 C   0  0  0  0  0  0  0  0  0  0  0  0
  146.7080  138.0360  154.5750 C   0  0  0  0  0  0  0  0  0  0  0  0
  147.2550  139.3270  154.5250 C   0  0  0  0  0  3  0  0  0  0  0  0
  144.7720  136.6320  154.2300 O   0  0  0  0  0  0  0  0  0  0  0  0
  144.2300  136.3890  154.9550 H   0  0  0  0  0  0  0  0  0  0  0  0
  147.6000  137.0890  155.0030 O   0  0  0  0  0  0  0  0  0  0  0  0
  148.3090  137.3430  156.2070 C   0  0  0  0  0  1  0  0  0  0  0  0
  147.0830  141.8200  154.1340 C   0  0  0  0  0  2  0  0  0  0  0  0
  148.6000  141.7840  153.9760 C   0  0  0  0  0  2  0  0  0  0  0  0
  149.0000  142.0650  152.5410 C   0  0  0  0  0  0  0  0  0  0  0  0
  150.0770  142.5700  152.2430 O   0  0  0  0  0  0  0  0  0  0  0  0
  147.5540  142.5610  150.6160 C   0  0  0  0  0  3  0  0  0  0  0  0
  148.0200  141.6580  151.4930 C   0  0  0  0  0  3  0  0  0  0  0  0
  146.5640  142.2320  149.5390 C   0  0  0  0  0  2  0  0  0  0  0  0
  144.5860  140.8040  150.1510 C   0  0  0  0  0  1  0  0  0  0  0  0
  146.0330  140.8070  149.6790 C   0  0  0  0  0  2  0  0  0  0  0  0
  1 11  1  0  0  0  0
  1  6  1  0  0  0  0
  2  3  1  0  0  0  0
  2  1  2  0  0  0  0
  3  4  2  0  0  0  0
  4  7  1  0  0  0  0
  4  5  1  0  0  0  0
  5  9  1  0  0  0  0
  6  5  2  0  0  0  0
  7  8  1  0  0  0  0
  9 10  1  0  0  0  0
 12 11  1  0  0  0  0
 13 12  1  0  0  0  0
 14 13  2  0  0  0  0
 15 16  2  0  0  0  0
 16 13  1  0  0  0  0
 17 19  1  0  0  0  0
 17 15  1  0  0  0  0
 19 18  1  0  0  0  0
M  END
>  <MODEL>
3

>  <REMARK>
 VINA RESULT:    -6.003      8.889     11.314
 INTER + INTRA:          -9.345
 INTER:                  -8.410
 INTRA:                  -0.934
 UNBOUND:                -0.710
  Name = CHEMBL277440
  10 active torsions:
  status: ('A' for Active; 'I' for Inactive)
    1  A    between atoms: C_1  and  C_2
    2  A    between atoms: C_2  and  C_3
    3  A    between atoms: C_3  and  C_4
    4  A    between atoms: C_5  and  C_6
    5  A    between atoms: C_6  and  C_8
    6  A    between atoms: C_8  and  C_9
    7  A    between atoms: C_9  and  C_10
    8  A    between atoms: C_13  and  O_14
    9  A    between atoms: C_15  and  O_16
   10  A    between atoms: O_16  and  C_17
                            x       y       z     vdW  Elec       q    Type
                         _______ _______ _______ _____ _____    ______ ____

>  <TORSDO>
F 8

>  <SCORE>
-6.003

>  <RMSD_LB>
8.889

>  <RMSD_UB>
11.314

$$$$
CHEMBL277440
 OpenBabel10162523493D

 19 19  0  0  0  0  0  0  0  0999 V2000
  136.1790  135.9540  155.7470 C   0  0  0  0  0  0  0  0  0  0  0  0
  136.9490  137.0900  155.4820 C   0  0  0  0  0  3  0  0  0  0  0  0
  137.4180  137.8810  156.5300 C   0  0  0  0  0  3  0  0  0  0  0  0
  137.1290  137.5420  157.8570 C   0  0  0  0  0  0  0  0  0  0  0  0
  136.3590  136.4090  158.1460 C   0  0  0  0  0  0  0  0  0  0  0  0
  135.8850  135.6300  157.0790 C   0  0  0  0  0  3  0  0  0  0  0  0
  137.6240  138.3450  158.8460 O   0  0  0  0  0  0  0  0  0  0  0  0
  137.8390  137.9800  159.6830 H   0  0  0  0  0  0  0  0  0  0  0  0
  135.9870  135.9270  159.3720 O   0  0  0  0  0  0  0  0  0  0  0  0
  134.6370  136.1060  159.7730 C   0  0  0  0  0  1  0  0  0  0  0  0
  135.7040  135.0730  154.6190 C   0  0  0  0  0  2  0  0  0  0  0  0
  136.0400  135.6710  153.2560 C   0  0  0  0  0  2  0  0  0  0  0  0
  134.7960  135.7910  152.3980 C   0  0  0  0  0  0  0  0  0  0  0  0
  133.8780  136.5560  152.6710 O   0  0  0  0  0  0  0  0  0  0  0  0
  134.0770  133.7920  151.1620 C   0  0  0  0  0  3  0  0  0  0  0  0
  134.7610  134.9460  151.1680 C   0  0  0  0  0  3  0  0  0  0  0  0
  133.9980  132.8860  149.9700 C   0  0  0  0  0  2  0  0  0  0  0  0
  133.6730  133.5370  147.5630 C   0  0  0  0  0  1  0  0  0  0  0  0
  133.0130  133.4110  148.9270 C   0  0  0  0  0  2  0  0  0  0  0  0
  1  6  1  0  0  0  0
  2  1  2  0  0  0  0
  2  3  1  0  0  0  0
  3  4  2  0  0  0  0
  4  5  1  0  0  0  0
  4  7  1  0  0  0  0
  5  9  1  0  0  0  0
  6  5  2  0  0  0  0
  7  8  1  0  0  0  0
  9 10  1  0  0  0  0
 11  1  1  0  0  0  0
 12 11  1  0  0  0  0
 13 14  2  0  0  0  0
 13 12  1  0  0  0  0
 15 16  2  0  0  0  0
 16 13  1  0  0  0  0
 17 15  1  0  0  0  0
 18 19  1  0  0  0  0
 19 17  1  0  0  0  0
M  END
>  <MODEL>
4

>  <REMARK>
 VINA RESULT:    -5.903      3.100      5.297
 INTER + INTRA:          -9.201
 INTER:                  -8.680
 INTRA:                  -0.521
 UNBOUND:                -0.710
  Name = CHEMBL277440
  10 active torsions:
  status: ('A' for Active; 'I' for Inactive)
    1  A    between atoms: C_1  and  C_2
    2  A    between atoms: C_2  and  C_3
    3  A    between atoms: C_3  and  C_4
    4  A    between atoms: C_5  and  C_6
    5  A    between atoms: C_6  and  C_8
    6  A    between atoms: C_8  and  C_9
    7  A    between atoms: C_9  and  C_10
    8  A    between atoms: C_13  and  O_14
    9  A    between atoms: C_15  and  O_16
   10  A    between atoms: O_16  and  C_17
                            x       y       z     vdW  Elec       q    Type
                         _______ _______ _______ _____ _____    ______ ____

>  <TORSDO>
F 8

>  <SCORE>
-5.903

>  <RMSD_LB>
3.100

>  <RMSD_UB>
5.297

$$$$
CHEMBL277440
 OpenBabel10162523493D

 19 19  0  0  0  0  0  0  0  0999 V2000
  133.2320  133.7240  149.2100 C   0  0  0  0  0  0  0  0  0  0  0  0
  134.0950  132.7070  148.7930 C   0  0  0  0  0  3  0  0  0  0  0  0
  134.7170  132.7790  147.5480 C   0  0  0  0  0  3  0  0  0  0  0  0
  134.4880  133.8720  146.7050 C   0  0  0  0  0  0  0  0  0  0  0  0
  133.6270  134.9020  147.1000 C   0  0  0  0  0  0  0  0  0  0  0  0
  133.0000  134.8100  148.3520 C   0  0  0  0  0  3  0  0  0  0  0  0
  135.1330  133.8990  145.5000 O   0  0  0  0  0  0  0  0  0  0  0  0
  135.4550  134.7100  145.1580 H   0  0  0  0  0  0  0  0  0  0  0  0
  133.2950  136.0400  146.4140 O   0  0  0  0  0  0  0  0  0  0  0  0
  132.5870  137.0530  147.1150 C   0  0  0  0  0  1  0  0  0  0  0  0
  132.5880  133.6710  150.5730 C   0  0  0  0  0  2  0  0  0  0  0  0
  133.0590  134.8160  151.4640 C   0  0  0  0  0  2  0  0  0  0  0  0
  134.1670  134.3580  152.3910 C   0  0  0  0  0  0  0  0  0  0  0  0
  133.9510  133.9510  153.5270 O   0  0  0  0  0  0  0  0  0  0  0  0
  135.8600  135.2520  150.8490 C   0  0  0  0  0  3  0  0  0  0  0  0
  135.5500  134.3920  151.8320 C   0  0  0  0  0  3  0  0  0  0  0  0
  137.2230  135.3430  150.2310 C   0  0  0  0  0  2  0  0  0  0  0  0
  136.0030  137.0140  148.8010 C   0  0  0  0  0  1  0  0  0  0  0  0
  137.1820  136.0570  148.8810 C   0  0  0  0  0  2  0  0  0  0  0  0
  1 11  1  0  0  0  0
  2  1  1  0  0  0  0
  3  2  2  0  0  0  0
  4  5  2  0  0  0  0
  4  3  1  0  0  0  0
  5  6  1  0  0  0  0
  6  1  2  0  0  0  0
  7  4  1  0  0  0  0
  8  7  1  0  0  0  0
  9  5  1  0  0  0  0
  9 10  1  0  0  0  0
 11 12  1  0  0  0  0
 12 13  1  0  0  0  0
 13 14  2  0  0  0  0
 15 16  2  0  0  0  0
 16 13  1  0  0  0  0
 17 15  1  0  0  0  0
 18 19  1  0  0  0  0
 19 17  1  0  0  0  0
M  END
>  <MODEL>
5

>  <REMARK>
 VINA RESULT:    -5.764      5.208      7.912
 INTER + INTRA:          -9.001
 INTER:                  -7.571
 INTRA:                  -1.430
 UNBOUND:                -0.710
  Name = CHEMBL277440
  10 active torsions:
  status: ('A' for Active; 'I' for Inactive)
    1  A    between atoms: C_1  and  C_2
    2  A    between atoms: C_2  and  C_3
    3  A    between atoms: C_3  and  C_4
    4  A    between atoms: C_5  and  C_6
    5  A    between atoms: C_6  and  C_8
    6  A    between atoms: C_8  and  C_9
    7  A    between atoms: C_9  and  C_10
    8  A    between atoms: C_13  and  O_14
    9  A    between atoms: C_15  and  O_16
   10  A    between atoms: O_16  and  C_17
                            x       y       z     vdW  Elec       q    Type
                         _______ _______ _______ _____ _____    ______ ____

>  <TORSDO>
F 8

>  <SCORE>
-5.764

>  <RMSD_LB>
5.208

>  <RMSD_UB>
7.912

$$$$
CHEMBL277440
 OpenBabel10162523493D

 19 19  0  0  0  0  0  0  0  0999 V2000
  146.1940  141.8610  152.0370 C   0  0  0  0  0  0  0  0  0  0  0  0
  146.9260  142.4920  151.0280 C   0  0  0  0  0  3  0  0  0  0  0  0
  146.6930  142.1790  149.6900 C   0  0  0  0  0  3  0  0  0  0  0  0
  145.7200  141.2350  149.3440 C   0  0  0  0  0  0  0  0  0  0  0  0
  144.9750  140.5900  150.3380 C   0  0  0  0  0  0  0  0  0  0  0  0
  145.2290  140.9080  151.6800 C   0  0  0  0  0  3  0  0  0  0  0  0
  145.5220  140.9750  148.0160 O   0  0  0  0  0  0  0  0  0  0  0  0
  144.6980  140.6400  147.7210 H   0  0  0  0  0  0  0  0  0  0  0  0
  143.9860  139.6550  150.1840 O   0  0  0  0  0  0  0  0  0  0  0  0
  142.6570  140.0360  150.5070 C   0  0  0  0  0  1  0  0  0  0  0  0
  146.4150  142.2260  153.4850 C   0  0  0  0  0  2  0  0  0  0  0  0
  146.8500  141.0190  154.3100 C   0  0  0  0  0  2  0  0  0  0  0  0
  148.2880  140.6480  154.0060 C   0  0  0  0  0  0  0  0  0  0  0  0
  149.2110  141.4480  154.1060 O   0  0  0  0  0  0  0  0  0  0  0  0
  147.8440  138.6870  152.5920 C   0  0  0  0  0  3  0  0  0  0  0  0
  148.5320  139.2300  153.6080 C   0  0  0  0  0  3  0  0  0  0  0  0
  148.0270  137.2700  152.1370 C   0  0  0  0  0  2  0  0  0  0  0  0
  145.5250  137.2370  152.3900 C   0  0  0  0  0  1  0  0  0  0  0  0
  146.7160  136.6660  151.6350 C   0  0  0  0  0  2  0  0  0  0  0  0
  1 11  1  0  0  0  0
  2  1  2  0  0  0  0
  3  2  1  0  0  0  0
  4  3  2  0  0  0  0
  4  5  1  0  0  0  0
  5  6  2  0  0  0  0
  6  1  1  0  0  0  0
  7  4  1  0  0  0  0
  8  7  1  0  0  0  0
  9  5  1  0  0  0  0
  9 10  1  0  0  0  0
 11 12  1  0  0  0  0
 13 14  2  0  0  0  0
 13 12  1  0  0  0  0
 15 16  2  0  0  0  0
 16 13  1  0  0  0  0
 17 15  1  0  0  0  0
 19 17  1  0  0  0  0
 19 18  1  0  0  0  0
M  END
>  <MODEL>
6

>  <REMARK>
 VINA RESULT:    -5.729      9.157     11.761
 INTER + INTRA:          -8.951
 INTER:                  -7.742
 INTRA:                  -1.209
 UNBOUND:                -0.710
  Name = CHEMBL277440
  10 active torsions:
  status: ('A' for Active; 'I' for Inactive)
    1  A    between atoms: C_1  and  C_2
    2  A    between atoms: C_2  and  C_3
    3  A    between atoms: C_3  and  C_4
    4  A    between atoms: C_5  and  C_6
    5  A    between atoms: C_6  and  C_8
    6  A    between atoms: C_8  and  C_9
    7  A    between atoms: C_9  and  C_10
    8  A    between atoms: C_13  and  O_14
    9  A    between atoms: C_15  and  O_16
   10  A    between atoms: O_16  and  C_17
                            x       y       z     vdW  Elec       q    Type
                         _______ _______ _______ _____ _____    ______ ____

>  <TORSDO>
F 8

>  <SCORE>
-5.729

>  <RMSD_LB>
9.157

>  <RMSD_UB>
11.761

$$$$
CHEMBL277440
 OpenBabel10162523493D

 19 19  0  0  0  0  0  0  0  0999 V2000
  141.6060  137.7220  152.7190 C   0  0  0  0  0  0  0  0  0  0  0  0
  140.5340  137.6830  151.8240 C   0  0  0  0  0  3  0  0  0  0  0  0
  139.2340  137.9020  152.2750 C   0  0  0  0  0  3  0  0  0  0  0  0
  138.9890  138.1700  153.6260 C   0  0  0  0  0  0  0  0  0  0  0  0
  140.0480  138.2130  154.5420 C   0  0  0  0  0  0  0  0  0  0  0  0
  141.3500  137.9800  154.0730 C   0  0  0  0  0  3  0  0  0  0  0  0
  137.6970  138.3900  154.0130 O   0  0  0  0  0  0  0  0  0  0  0  0
  137.0780  137.6860  154.0050 H   0  0  0  0  0  0  0  0  0  0  0  0
  139.9960  138.4650  155.8870 O   0  0  0  0  0  0  0  0  0  0  0  0
  140.3090  137.4010  156.7730 C   0  0  0  0  0  1  0  0  0  0  0  0
  143.0200  137.5260  152.2290 C   0  0  0  0  0  2  0  0  0  0  0  0
  144.0280  137.6060  153.3700 C   0  0  0  0  0  2  0  0  0  0  0  0
  144.7320  138.9480  153.3760 C   0  0  0  0  0  0  0  0  0  0  0  0
  144.5700  139.7740  154.2670 O   0  0  0  0  0  0  0  0  0  0  0  0
  145.8940  140.4570  151.8220 C   0  0  0  0  0  3  0  0  0  0  0  0
  145.6720  139.2030  152.2450 C   0  0  0  0  0  3  0  0  0  0  0  0
  146.8170  140.7950  150.6900 C   0  0  0  0  0  2  0  0  0  0  0  0
  148.8130  141.8790  151.7690 C   0  0  0  0  0  1  0  0  0  0  0  0
  147.5580  142.1070  150.9400 C   0  0  0  0  0  2  0  0  0  0  0  0
  1  6  1  0  0  0  0
  2  3  1  0  0  0  0
  2  1  2  0  0  0  0
  3  4  2  0  0  0  0
  4  7  1  0  0  0  0
  4  5  1  0  0  0  0
  5  9  1  0  0  0  0
  6  5  2  0  0  0  0
  8  7  1  0  0  0  0
  9 10  1  0  0  0  0
 11  1  1  0  0  0  0
 11 12  1  0  0  0  0
 12 13  1  0  0  0  0
 13 14  2  0  0  0  0
 15 16  2  0  0  0  0
 16 13  1  0  0  0  0
 17 19  1  0  0  0  0
 17 15  1  0  0  0  0
 19 18  1  0  0  0  0
M  END
>  <MODEL>
7

>  <REMARK>
 VINA RESULT:    -5.621      4.884      7.489
 INTER + INTRA:          -8.796
 INTER:                  -8.280
 INTRA:                  -0.516
 UNBOUND:                -0.710
  Name = CHEMBL277440
  10 active torsions:
  status: ('A' for Active; 'I' for Inactive)
    1  A    between atoms: C_1  and  C_2
    2  A    between atoms: C_2  and  C_3
    3  A    between atoms: C_3  and  C_4
    4  A    between atoms: C_5  and  C_6
    5  A    between atoms: C_6  and  C_8
    6  A    between atoms: C_8  and  C_9
    7  A    between atoms: C_9  and  C_10
    8  A    between atoms: C_13  and  O_14
    9  A    between atoms: C_15  and  O_16
   10  A    between atoms: O_16  and  C_17
                            x       y       z     vdW  Elec       q    Type
                         _______ _______ _______ _____ _____    ______ ____

>  <TORSDO>
F 8

>  <SCORE>
-5.621

>  <RMSD_LB>
4.884

>  <RMSD_UB>
7.489

$$$$
CHEMBL277440
 OpenBabel10162523493D

 19 19  0  0  0  0  0  0  0  0999 V2000
  147.3410  141.1820  151.3560 C   0  0  0  0  0  0  0  0  0  0  0  0
  148.5320  141.8860  151.5470 C   0  0  0  0  0  3  0  0  0  0  0  0
  149.0690  142.0240  152.8260 C   0  0  0  0  0  3  0  0  0  0  0  0
  148.4250  141.4540  153.9290 C   0  0  0  0  0  0  0  0  0  0  0  0
  147.2290  140.7450  153.7620 C   0  0  0  0  0  0  0  0  0  0  0  0
  146.6960  140.6240  152.4700 C   0  0  0  0  0  3  0  0  0  0  0  0
  149.0010  141.6090  155.1590 O   0  0  0  0  0  0  0  0  0  0  0  0
  149.8310  142.0390  155.2380 H   0  0  0  0  0  0  0  0  0  0  0  0
  146.4730  140.1210  154.7180 O   0  0  0  0  0  0  0  0  0  0  0  0
  146.8050  138.7820  155.0540 C   0  0  0  0  0  1  0  0  0  0  0  0
  146.7770  140.9940  149.9690 C   0  0  0  0  0  2  0  0  0  0  0  0
  146.1780  139.6030  149.7870 C   0  0  0  0  0  2  0  0  0  0  0  0
  144.6850  139.6870  149.5390 C   0  0  0  0  0  0  0  0  0  0  0  0
  144.2140  140.0370  148.4620 O   0  0  0  0  0  0  0  0  0  0  0  0
  143.8070  138.0140  151.1110 C   0  0  0  0  0  3  0  0  0  0  0  0
  143.8050  139.2820  150.6740 C   0  0  0  0  0  3  0  0  0  0  0  0
  142.9480  137.5280  152.2400 C   0  0  0  0  0  2  0  0  0  0  0  0
  140.5210  138.0250  152.6700 C   0  0  0  0  0  1  0  0  0  0  0  0
  141.5100  137.2800  151.7870 C   0  0  0  0  0  2  0  0  0  0  0  0
  1  2  2  0  0  0  0
  1  6  1  0  0  0  0
  2  3  1  0  0  0  0
  3  4  2  0  0  0  0
  4  7  1  0  0  0  0
  5  4  1  0  0  0  0
  5  9  1  0  0  0  0
  6  5  2  0  0  0  0
  7  8  1  0  0  0  0
  9 10  1  0  0  0  0
 11  1  1  0  0  0  0
 12 11  1  0  0  0  0
 13 12  1  0  0  0  0
 13 16  1  0  0  0  0
 14 13  2  0  0  0  0
 15 17  1  0  0  0  0
 16 15  2  0  0  0  0
 19 17  1  0  0  0  0
 19 18  1  0  0  0  0
M  END
>  <MODEL>
8

>  <REMARK>
 VINA RESULT:    -5.444      7.542     11.661
 INTER + INTRA:          -8.540
 INTER:                  -7.830
 INTRA:                  -0.710
 UNBOUND:                -0.710
  Name = CHEMBL277440
  10 active torsions:
  status: ('A' for Active; 'I' for Inactive)
    1  A    between atoms: C_1  and  C_2
    2  A    between atoms: C_2  and  C_3
    3  A    between atoms: C_3  and  C_4
    4  A    between atoms: C_5  and  C_6
    5  A    between atoms: C_6  and  C_8
    6  A    between atoms: C_8  and  C_9
    7  A    between atoms: C_9  and  C_10
    8  A    between atoms: C_13  and  O_14
    9  A    between atoms: C_15  and  O_16
   10  A    between atoms: O_16  and  C_17
                            x       y       z     vdW  Elec       q    Type
                         _______ _______ _______ _____ _____    ______ ____

>  <TORSDO>
F 8

>  <SCORE>
-5.444

>  <RMSD_LB>
7.542

>  <RMSD_UB>
11.661

$$$$
CHEMBL277440
 OpenBabel10162523493D

 19 19  0  0  0  0  0  0  0  0999 V2000
  146.0240  141.6060  150.2190 C   0  0  0  0  0  0  0  0  0  0  0  0
  146.3040  141.1530  148.9270 C   0  0  0  0  0  3  0  0  0  0  0  0
  145.4100  140.3110  148.2680 C   0  0  0  0  0  3  0  0  0  0  0  0
  144.2200  139.9170  148.8900 C   0  0  0  0  0  0  0  0  0  0  0  0
  143.9190  140.3570  150.1840 C   0  0  0  0  0  0  0  0  0  0  0  0
  144.8340  141.1950  150.8380 C   0  0  0  0  0  3  0  0  0  0  0  0
  143.3720  139.1010  148.1940 O   0  0  0  0  0  0  0  0  0  0  0  0
  143.6980  138.5810  147.4850 H   0  0  0  0  0  0  0  0  0  0  0  0
  142.8090  140.0800  150.9370 O   0  0  0  0  0  0  0  0  0  0  0  0
  142.9890  139.3420  152.1370 C   0  0  0  0  0  1  0  0  0  0  0  0
  146.9690  142.5490  150.9210 C   0  0  0  0  0  2  0  0  0  0  0  0
  148.3280  141.9030  151.1720 C   0  0  0  0  0  2  0  0  0  0  0  0
  148.6450  141.8720  152.6540 C   0  0  0  0  0  0  0  0  0  0  0  0
  149.7220  142.2450  153.1060 O   0  0  0  0  0  0  0  0  0  0  0  0
  147.2410  140.0870  153.5940 C   0  0  0  0  0  3  0  0  0  0  0  0
  147.5540  141.3910  153.5510 C   0  0  0  0  0  3  0  0  0  0  0  0
  146.1540  139.5270  154.4620 C   0  0  0  0  0  2  0  0  0  0  0  0
  147.8230  137.7910  155.1870 C   0  0  0  0  0  1  0  0  0  0  0  0
  146.7250  138.7410  155.6410 C   0  0  0  0  0  2  0  0  0  0  0  0
  1  6  1  0  0  0  0
  1 11  1  0  0  0  0
  2  1  2  0  0  0  0
  3  4  2  0  0  0  0
  3  2  1  0  0  0  0
  4  5  1  0  0  0  0
  5  6  2  0  0  0  0
  5  9  1  0  0  0  0
  7  4  1  0  0  0  0
  8  7  1  0  0  0  0
  9 10  1  0  0  0  0
 11 12  1  0  0  0  0
 12 13  1  0  0  0  0
 13 14  2  0  0  0  0
 13 16  1  0  0  0  0
 15 17  1  0  0  0  0
 16 15  2  0  0  0  0
 17 19  1  0  0  0  0
 18 19  1  0  0  0  0
M  END
>  <MODEL>
9

>  <REMARK>
 VINA RESULT:    -5.397      8.312     11.764
 INTER + INTRA:          -8.474
 INTER:                  -7.530
 INTRA:                  -0.944
 UNBOUND:                -0.710
  Name = CHEMBL277440
  10 active torsions:
  status: ('A' for Active; 'I' for Inactive)
    1  A    between atoms: C_1  and  C_2
    2  A    between atoms: C_2  and  C_3
    3  A    between atoms: C_3  and  C_4
    4  A    between atoms: C_5  and  C_6
    5  A    between atoms: C_6  and  C_8
    6  A    between atoms: C_8  and  C_9
    7  A    between atoms: C_9  and  C_10
    8  A    between atoms: C_13  and  O_14
    9  A    between atoms: C_15  and  O_16
   10  A    between atoms: O_16  and  C_17
                            x       y       z     vdW  Elec       q    Type
                         _______ _______ _______ _____ _____    ______ ____

>  <TORSDO>
F 8

>  <SCORE>
-5.397

>  <RMSD_LB>
8.312

>  <RMSD_UB>
11.764

$$$$
