CHEMBL1533771
 OpenBabel10162523343D

 25 25  0  0  1  0  0  0  0  0999 V2000
  142.4700  139.5600  152.1560 N   0  0  0  0  0  0  0  0  0  0  0  0
  143.8390  139.4200  152.1590 C   0  0  0  0  0  0  0  0  0  0  0  0
  144.4450  138.4570  151.7160 O   0  0  0  0  0  0  0  0  0  0  0  0
  144.4490  140.5160  152.6960 N   0  0  0  0  0  0  0  0  0  0  0  0
  142.0530  140.3300  152.6070 H   0  0  0  0  0  0  0  0  0  0  0  0
  143.8800  141.2070  153.1060 H   0  0  0  0  0  0  0  0  0  0  0  0
  141.6410  138.5780  151.4900 C   0  0  0  0  0  2  0  0  0  0  0  0
  138.0490  137.7030  153.7770 C   0  0  0  0  0  0  0  0  0  0  0  0
  138.0960  137.4930  152.3910 C   0  0  0  0  0  3  0  0  0  0  0  0
  139.2680  137.7410  151.6600 C   0  0  0  0  0  3  0  0  0  0  0  0
  140.4150  138.2210  152.2960 C   0  0  0  0  0  0  0  0  0  0  0  0
  140.3660  138.4360  153.6800 C   0  0  0  0  0  3  0  0  0  0  0  0
  139.2000  138.1710  154.4260 C   0  0  0  0  0  0  0  0  0  0  0  0
  136.4650  136.2140  154.7490 C   0  0  0  0  0  1  0  0  0  0  0  0
  136.8990  137.5470  154.5070 O   0  0  0  0  0  0  0  0  0  0  0  0
  139.3350  138.4700  155.7600 O   0  0  0  0  0  0  0  0  0  0  0  0
  139.8160  137.4330  156.6060 C   0  0  0  0  0  1  0  0  0  0  0  0
  145.8930  140.7250  152.6990 C   0  0  2  0  0  3  0  0  0  0  0  0
  146.4380  140.3140  154.0770 C   0  0  0  0  0  0  0  0  0  0  0  0
  145.9750  139.3820  154.7330 O   0  0  0  0  0  1  0  0  0  0  0  0
  147.4760  141.0530  154.5270 O   0  0  0  0  0  0  0  0  0  0  0  0
  146.2710  142.1800  152.3490 C   0  0  0  0  0  2  0  0  0  0  0  0
  147.1370  142.3690  151.0790 C   0  0  0  0  0  3  0  0  0  0  0  0
  148.5960  141.9800  151.3580 C   0  0  0  0  0  1  0  0  0  0  0  0
  146.6520  141.5590  149.8760 C   0  0  0  0  0  1  0  0  0  0  0  0
  1  2  1  0  0  0  0
  1  5  1  0  0  0  0
  2  4  1  0  0  0  0
  3  2  2  0  0  0  0
  4 18  1  0  0  0  0
  4  6  1  0  0  0  0
  7  1  1  0  0  0  0
  7 11  1  0  0  0  0
  8 13  1  0  0  0  0
  8 15  1  0  0  0  0
  9  8  2  0  0  0  0
 10 11  2  0  0  0  0
 10  9  1  0  0  0  0
 11 12  1  0  0  0  0
 12 13  2  0  0  0  0
 13 16  1  0  0  0  0
 15 14  1  0  0  0  0
 16 17  1  0  0  0  0
 18 22  1  1  0  0  0
 18 19  1  0  0  0  0
 19 21  2  0  0  0  0
 19 20  1  0  0  0  0
 23 24  1  0  0  0  0
 23 22  1  0  0  0  0
 25 23  1  0  0  0  0
M  END
>  <MODEL>
1

>  <REMARK>
 VINA RESULT:    -6.914      0.000      0.000
 INTER + INTRA:         -10.802
 INTER:                 -10.061
 INTRA:                  -0.740
 UNBOUND:                -0.655
  Name = CHEMBL1533771
  12 active torsions:
  status: ('A' for Active; 'I' for Inactive)
    1  A    between atoms: C_1  and  O_2
    2  A    between atoms: O_2  and  C_3
    3  A    between atoms: C_6  and  C_7
    4  A    between atoms: C_7  and  N_8
    5  A    between atoms: N_11  and  CA_12
    6  A    between atoms: CA_12  and  CB_13
    7  A    between atoms: CA_12  and  C_17
    8  A    between atoms: CB_13  and  CG_14
    9  A    between atoms: CG_14  and  CD1_15
   10  A    between atoms: CG_14  and  CD2_16
   11  A    between atoms: C_21  and  O_22
   12  A    between atoms: O_22  and  C_23
                            x       y       z     vdW  Elec       q    Type
                         _______ _______ _______ _____ _____    ______ ____

>  <TORSDO>
F 8

>  <SCORE>
-6.914

>  <RMSD_LB>
0.000

>  <RMSD_UB>
0.000

$$$$
CHEMBL1533771
 OpenBabel10162523343D

 25 25  0  0  1  0  0  0  0  0999 V2000
  141.9570  139.3260  154.2410 N   0  0  0  0  0  0  0  0  0  0  0  0
  143.1930  139.1420  153.6630 C   0  0  0  0  0  0  0  0  0  0  0  0
  143.4270  138.3770  152.7410 O   0  0  0  0  0  0  0  0  0  0  0  0
  144.1310  139.9540  154.2300 N   0  0  0  0  0  0  0  0  0  0  0  0
  141.8660  139.9010  155.0350 H   0  0  0  0  0  0  0  0  0  0  0  0
  143.8730  140.4760  155.0240 H   0  0  0  0  0  0  0  0  0  0  0  0
  140.7910  138.6750  153.6840 C   0  0  0  0  0  2  0  0  0  0  0  0
  138.0790  137.1460  156.7170 C   0  0  0  0  0  0  0  0  0  0  0  0
  139.4360  137.3620  156.9990 C   0  0  0  0  0  3  0  0  0  0  0  0
  140.3020  137.8900  156.0290 C   0  0  0  0  0  3  0  0  0  0  0  0
  139.8340  138.2000  154.7510 C   0  0  0  0  0  0  0  0  0  0  0  0
  138.4800  137.9780  154.4680 C   0  0  0  0  0  3  0  0  0  0  0  0
  137.5970  137.4670  155.4400 C   0  0  0  0  0  0  0  0  0  0  0  0
  137.0870  137.1880  158.8820 C   0  0  0  0  0  1  0  0  0  0  0  0
  137.2240  136.5570  157.6140 O   0  0  0  0  0  0  0  0  0  0  0  0
  136.3190  137.2920  154.9690 O   0  0  0  0  0  0  0  0  0  0  0  0
  136.0350  136.0550  154.3260 C   0  0  0  0  0  1  0  0  0  0  0  0
  145.4960  140.0940  153.7320 C   0  0  2  0  0  3  0  0  0  0  0  0
  146.3590  138.9910  154.3680 C   0  0  0  0  0  0  0  0  0  0  0  0
  146.5650  138.9110  155.5780 O   0  0  0  0  0  1  0  0  0  0  0  0
  146.8820  138.0990  153.4970 O   0  0  0  0  0  0  0  0  0  0  0  0
  146.0740  141.4980  154.0080 C   0  0  0  0  0  2  0  0  0  0  0  0
  146.5210  142.3040  152.7630 C   0  0  0  0  0  3  0  0  0  0  0  0
  147.8630  141.7810  152.2340 C   0  0  0  0  0  1  0  0  0  0  0  0
  145.5120  142.2710  151.6140 C   0  0  0  0  0  1  0  0  0  0  0  0
  1  5  1  0  0  0  0
  2  4  1  0  0  0  0
  2  1  1  0  0  0  0
  3  2  2  0  0  0  0
  4  6  1  0  0  0  0
  7  1  1  0  0  0  0
  7 11  1  0  0  0  0
  8  9  1  0  0  0  0
  8 15  1  0  0  0  0
 10  9  2  0  0  0  0
 11 10  1  0  0  0  0
 12 11  2  0  0  0  0
 12 13  1  0  0  0  0
 13  8  2  0  0  0  0
 15 14  1  0  0  0  0
 16 13  1  0  0  0  0
 17 16  1  0  0  0  0
 18 22  1  1  0  0  0
 18  4  1  0  0  0  0
 18 19  1  0  0  0  0
 19 20  1  0  0  0  0
 21 19  2  0  0  0  0
 23 22  1  0  0  0  0
 24 23  1  0  0  0  0
 25 23  1  0  0  0  0
M  END
>  <MODEL>
2

>  <REMARK>
 VINA RESULT:    -6.866      1.682      2.751
 INTER + INTRA:         -10.732
 INTER:                 -10.086
 INTRA:                  -0.646
 UNBOUND:                -0.655
  Name = CHEMBL1533771
  12 active torsions:
  status: ('A' for Active; 'I' for Inactive)
    1  A    between atoms: C_1  and  O_2
    2  A    between atoms: O_2  and  C_3
    3  A    between atoms: C_6  and  C_7
    4  A    between atoms: C_7  and  N_8
    5  A    between atoms: N_11  and  CA_12
    6  A    between atoms: CA_12  and  CB_13
    7  A    between atoms: CA_12  and  C_17
    8  A    between atoms: CB_13  and  CG_14
    9  A    between atoms: CG_14  and  CD1_15
   10  A    between atoms: CG_14  and  CD2_16
   11  A    between atoms: C_21  and  O_22
   12  A    between atoms: O_22  and  C_23
                            x       y       z     vdW  Elec       q    Type
                         _______ _______ _______ _____ _____    ______ ____

>  <TORSDO>
F 8

>  <SCORE>
-6.866

>  <RMSD_LB>
1.682

>  <RMSD_UB>
2.751

$$$$
CHEMBL1533771
 OpenBabel10162523343D

 25 25  0  0  1  0  0  0  0  0999 V2000
  135.2950  134.5340  153.5380 N   0  0  0  0  0  0  0  0  0  0  0  0
  134.9790  135.2120  154.6920 C   0  0  0  0  0  0  0  0  0  0  0  0
  133.8530  135.3260  155.1510 O   0  0  0  0  0  0  0  0  0  0  0  0
  136.0940  135.7220  155.2890 N   0  0  0  0  0  0  0  0  0  0  0  0
  136.2160  134.5570  153.1900 H   0  0  0  0  0  0  0  0  0  0  0  0
  136.9500  135.6560  154.8060 H   0  0  0  0  0  0  0  0  0  0  0  0
  134.2770  133.7850  152.8330 C   0  0  0  0  0  2  0  0  0  0  0  0
  133.4130  135.2880  148.8470 C   0  0  0  0  0  0  0  0  0  0  0  0
  133.3760  136.1330  149.9650 C   0  0  0  0  0  3  0  0  0  0  0  0
  133.6900  135.6540  151.2460 C   0  0  0  0  0  3  0  0  0  0  0  0
  134.0350  134.3150  151.4400 C   0  0  0  0  0  0  0  0  0  0  0  0
  134.0660  133.4690  150.3240 C   0  0  0  0  0  3  0  0  0  0  0  0
  133.7720  133.9450  149.0300 C   0  0  0  0  0  0  0  0  0  0  0  0
  132.4150  136.9800  147.5010 C   0  0  0  0  0  1  0  0  0  0  0  0
  133.0350  135.7030  147.5960 O   0  0  0  0  0  0  0  0  0  0  0  0
  133.8270  132.9640  148.0700 O   0  0  0  0  0  0  0  0  0  0  0  0
  135.0710  132.7890  147.4010 C   0  0  0  0  0  1  0  0  0  0  0  0
  136.0960  136.3620  156.6020 C   0  0  2  0  0  3  0  0  0  0  0  0
  136.6210  137.7980  156.4390 C   0  0  0  0  0  0  0  0  0  0  0  0
  136.8380  138.3160  155.3450 O   0  0  0  0  0  0  0  0  0  0  0  0
  136.8290  138.4660  157.5960 O   0  0  0  0  0  1  0  0  0  0  0  0
  136.9240  135.5670  157.6340 C   0  0  0  0  0  2  0  0  0  0  0  0
  136.1160  134.8540  158.7470 C   0  0  0  0  0  3  0  0  0  0  0  0
  136.4900  135.4100  160.1270 C   0  0  0  0  0  1  0  0  0  0  0  0
  134.6000  134.9750  158.5810 C   0  0  0  0  0  1  0  0  0  0  0  0
  1  2  1  0  0  0  0
  2  3  2  0  0  0  0
  2  4  1  0  0  0  0
  4 18  1  0  0  0  0
  5  1  1  0  0  0  0
  6  4  1  0  0  0  0
  7  1  1  0  0  0  0
  8 13  2  0  0  0  0
  8  9  1  0  0  0  0
  9 10  2  0  0  0  0
 10 11  1  0  0  0  0
 11  7  1  0  0  0  0
 12 11  2  0  0  0  0
 13 12  1  0  0  0  0
 14 15  1  0  0  0  0
 15  8  1  0  0  0  0
 16 13  1  0  0  0  0
 17 16  1  0  0  0  0
 18 22  1  1  0  0  0
 19 18  1  0  0  0  0
 19 21  1  0  0  0  0
 20 19  2  0  0  0  0
 22 23  1  0  0  0  0
 23 24  1  0  0  0  0
 25 23  1  0  0  0  0
M  END
>  <MODEL>
3

>  <REMARK>
 VINA RESULT:    -6.841      8.235     10.599
 INTER + INTRA:         -10.696
 INTER:                  -9.925
 INTRA:                  -0.771
 UNBOUND:                -0.655
  Name = CHEMBL1533771
  12 active torsions:
  status: ('A' for Active; 'I' for Inactive)
    1  A    between atoms: C_1  and  O_2
    2  A    between atoms: O_2  and  C_3
    3  A    between atoms: C_6  and  C_7
    4  A    between atoms: C_7  and  N_8
    5  A    between atoms: N_11  and  CA_12
    6  A    between atoms: CA_12  and  CB_13
    7  A    between atoms: CA_12  and  C_17
    8  A    between atoms: CB_13  and  CG_14
    9  A    between atoms: CG_14  and  CD1_15
   10  A    between atoms: CG_14  and  CD2_16
   11  A    between atoms: C_21  and  O_22
   12  A    between atoms: O_22  and  C_23
                            x       y       z     vdW  Elec       q    Type
                         _______ _______ _______ _____ _____    ______ ____

>  <TORSDO>
F 8

>  <SCORE>
-6.841

>  <RMSD_LB>
8.235

>  <RMSD_UB>
10.599

$$$$
CHEMBL1533771
 OpenBabel10162523343D

 25 25  0  0  1  0  0  0  0  0999 V2000
  143.4090  139.0940  154.3110 N   0  0  0  0  0  0  0  0  0  0  0  0
  144.6190  139.2240  153.6690 C   0  0  0  0  0  0  0  0  0  0  0  0
  145.2130  138.3180  153.1040 O   0  0  0  0  0  0  0  0  0  0  0  0
  145.0670  140.5120  153.7110 N   0  0  0  0  0  0  0  0  0  0  0  0
  143.0350  139.8530  154.8130 H   0  0  0  0  0  0  0  0  0  0  0  0
  144.5670  141.1580  154.2600 H   0  0  0  0  0  0  0  0  0  0  0  0
  142.6850  137.8420  154.2500 C   0  0  0  0  0  2  0  0  0  0  0  0
  139.8240  137.5670  150.9890 C   0  0  0  0  0  0  0  0  0  0  0  0
  139.4270  137.9760  152.2710 C   0  0  0  0  0  3  0  0  0  0  0  0
  140.3580  138.1000  153.3130 C   0  0  0  0  0  3  0  0  0  0  0  0
  141.7060  137.8010  153.1010 C   0  0  0  0  0  0  0  0  0  0  0  0
  142.1010  137.3860  151.8220 C   0  0  0  0  0  3  0  0  0  0  0  0
  141.1770  137.2790  150.7640 C   0  0  0  0  0  0  0  0  0  0  0  0
  137.6720  138.0200  150.0740 C   0  0  0  0  0  1  0  0  0  0  0  0
  138.9280  137.3590  149.9720 O   0  0  0  0  0  0  0  0  0  0  0  0
  141.7450  136.8310  149.5960 O   0  0  0  0  0  0  0  0  0  0  0  0
  142.9170  136.0330  149.7160 C   0  0  0  0  0  1  0  0  0  0  0  0
  146.2440  140.9890  152.9910 C   0  0  2  0  0  3  0  0  0  0  0  0
  147.4490  140.9390  153.9450 C   0  0  0  0  0  0  0  0  0  0  0  0
  148.0670  139.9050  154.1950 O   0  0  0  0  0  0  0  0  0  0  0  0
  147.7910  142.1230  154.4990 O   0  0  0  0  0  1  0  0  0  0  0  0
  146.0360  142.4050  152.4110 C   0  0  0  0  0  2  0  0  0  0  0  0
  145.6430  142.4740  150.9150 C   0  0  0  0  0  3  0  0  0  0  0  0
  146.8840  142.7000  150.0400 C   0  0  0  0  0  1  0  0  0  0  0  0
  144.9260  141.2210  150.4080 C   0  0  0  0  0  1  0  0  0  0  0  0
  1  5  1  0  0  0  0
  2  4  1  0  0  0  0
  2  1  1  0  0  0  0
  3  2  2  0  0  0  0
  4  6  1  0  0  0  0
  7  1  1  0  0  0  0
  8  9  1  0  0  0  0
  9 10  2  0  0  0  0
 11 10  1  0  0  0  0
 11  7  1  0  0  0  0
 12 11  2  0  0  0  0
 13  8  2  0  0  0  0
 13 12  1  0  0  0  0
 15 14  1  0  0  0  0
 15  8  1  0  0  0  0
 16 17  1  0  0  0  0
 16 13  1  0  0  0  0
 18 22  1  1  0  0  0
 18  4  1  0  0  0  0
 18 19  1  0  0  0  0
 19 20  2  0  0  0  0
 19 21  1  0  0  0  0
 23 22  1  0  0  0  0
 24 23  1  0  0  0  0
 25 23  1  0  0  0  0
M  END
>  <MODEL>
4

>  <REMARK>
 VINA RESULT:    -6.706      2.372      3.248
 INTER + INTRA:         -10.498
 INTER:                  -9.754
 INTRA:                  -0.744
 UNBOUND:                -0.655
  Name = CHEMBL1533771
  12 active torsions:
  status: ('A' for Active; 'I' for Inactive)
    1  A    between atoms: C_1  and  O_2
    2  A    between atoms: O_2  and  C_3
    3  A    between atoms: C_6  and  C_7
    4  A    between atoms: C_7  and  N_8
    5  A    between atoms: N_11  and  CA_12
    6  A    between atoms: CA_12  and  CB_13
    7  A    between atoms: CA_12  and  C_17
    8  A    between atoms: CB_13  and  CG_14
    9  A    between atoms: CG_14  and  CD1_15
   10  A    between atoms: CG_14  and  CD2_16
   11  A    between atoms: C_21  and  O_22
   12  A    between atoms: O_22  and  C_23
                            x       y       z     vdW  Elec       q    Type
                         _______ _______ _______ _____ _____    ______ ____

>  <TORSDO>
F 8

>  <SCORE>
-6.706

>  <RMSD_LB>
2.372

>  <RMSD_UB>
3.248

$$$$
CHEMBL1533771
 OpenBabel10162523343D

 25 25  0  0  1  0  0  0  0  0999 V2000
  142.6150  139.5880  154.3850 N   0  0  0  0  0  0  0  0  0  0  0  0
  143.8840  139.7670  154.8860 C   0  0  0  0  0  0  0  0  0  0  0  0
  144.2030  139.6190  156.0560 O   0  0  0  0  0  0  0  0  0  0  0  0
  144.7640  140.1040  153.8990 N   0  0  0  0  0  0  0  0  0  0  0  0
  142.4210  139.8070  153.4450 H   0  0  0  0  0  0  0  0  0  0  0  0
  144.4040  140.2850  153.0010 H   0  0  0  0  0  0  0  0  0  0  0  0
  141.5630  139.0780  155.2380 C   0  0  0  0  0  2  0  0  0  0  0  0
  138.1980  137.6160  152.9070 C   0  0  0  0  0  0  0  0  0  0  0  0
  139.4700  137.7580  152.3340 C   0  0  0  0  0  3  0  0  0  0  0  0
  140.5630  138.1950  153.0980 C   0  0  0  0  0  3  0  0  0  0  0  0
  140.4060  138.5160  154.4480 C   0  0  0  0  0  0  0  0  0  0  0  0
  139.1330  138.3790  155.0180 C   0  0  0  0  0  3  0  0  0  0  0  0
  138.0330  137.9220  154.2650 C   0  0  0  0  0  0  0  0  0  0  0  0
  137.3080  136.9340  150.8060 C   0  0  0  0  0  1  0  0  0  0  0  0
  137.0930  137.2690  152.1720 O   0  0  0  0  0  0  0  0  0  0  0  0
  136.8650  137.8820  154.9880 O   0  0  0  0  0  0  0  0  0  0  0  0
  136.9850  137.6880  156.3920 C   0  0  0  0  0  1  0  0  0  0  0  0
  146.2060  140.2120  154.0950 C   0  0  2  0  0  3  0  0  0  0  0  0
  146.6530  141.6120  153.6410 C   0  0  0  0  0  0  0  0  0  0  0  0
  146.0340  142.2800  152.8140 O   0  0  0  0  0  0  0  0  0  0  0  0
  147.7860  142.0670  154.2190 O   0  0  0  0  0  1  0  0  0  0  0  0
  146.9780  139.0990  153.3550 C   0  0  0  0  0  2  0  0  0  0  0  0
  147.3370  137.8480  154.1940 C   0  0  0  0  0  3  0  0  0  0  0  0
  147.4400  138.2070  155.6820 C   0  0  0  0  0  1  0  0  0  0  0  0
  146.3340  136.7030  154.0500 C   0  0  0  0  0  1  0  0  0  0  0  0
  1  2  1  0  0  0  0
  1  7  1  0  0  0  0
  2  3  2  0  0  0  0
  4 18  1  0  0  0  0
  4  2  1  0  0  0  0
  5  1  1  0  0  0  0
  6  4  1  0  0  0  0
  8 13  1  0  0  0  0
  9  8  2  0  0  0  0
  9 10  1  0  0  0  0
 10 11  2  0  0  0  0
 11 12  1  0  0  0  0
 11  7  1  0  0  0  0
 13 16  1  0  0  0  0
 13 12  2  0  0  0  0
 14 15  1  0  0  0  0
 15  8  1  0  0  0  0
 16 17  1  0  0  0  0
 18 22  1  6  0  0  0
 19 18  1  0  0  0  0
 19 21  1  0  0  0  0
 20 19  2  0  0  0  0
 22 23  1  0  0  0  0
 23 24  1  0  0  0  0
 25 23  1  0  0  0  0
M  END
>  <MODEL>
5

>  <REMARK>
 VINA RESULT:    -6.662      2.051      3.207
 INTER + INTRA:         -10.433
 INTER:                  -9.670
 INTRA:                  -0.762
 UNBOUND:                -0.655
  Name = CHEMBL1533771
  12 active torsions:
  status: ('A' for Active; 'I' for Inactive)
    1  A    between atoms: C_1  and  O_2
    2  A    between atoms: O_2  and  C_3
    3  A    between atoms: C_6  and  C_7
    4  A    between atoms: C_7  and  N_8
    5  A    between atoms: N_11  and  CA_12
    6  A    between atoms: CA_12  and  CB_13
    7  A    between atoms: CA_12  and  C_17
    8  A    between atoms: CB_13  and  CG_14
    9  A    between atoms: CG_14  and  CD1_15
   10  A    between atoms: CG_14  and  CD2_16
   11  A    between atoms: C_21  and  O_22
   12  A    between atoms: O_22  and  C_23
                            x       y       z     vdW  Elec       q    Type
                         _______ _______ _______ _____ _____    ______ ____

>  <TORSDO>
F 8

>  <SCORE>
-6.662

>  <RMSD_LB>
2.051

>  <RMSD_UB>
3.207

$$$$
CHEMBL1533771
 OpenBabel10162523343D

 25 25  0  0  1  0  0  0  0  0999 V2000
  138.9720  137.8930  155.2190 N   0  0  0  0  0  0  0  0  0  0  0  0
  137.8370  138.0500  155.9800 C   0  0  0  0  0  0  0  0  0  0  0  0
  136.9500  138.8600  155.7550 O   0  0  0  0  0  0  0  0  0  0  0  0
  137.8030  137.1590  157.0120 N   0  0  0  0  0  0  0  0  0  0  0  0
  139.6800  137.2740  155.5130 H   0  0  0  0  0  0  0  0  0  0  0  0
  138.6000  136.6010  157.1680 H   0  0  0  0  0  0  0  0  0  0  0  0
  139.1290  138.6350  153.9860 C   0  0  0  0  0  2  0  0  0  0  0  0
  142.7290  137.3870  151.8940 C   0  0  0  0  0  0  0  0  0  0  0  0
  141.4820  137.3940  151.2520 C   0  0  0  0  0  3  0  0  0  0  0  0
  140.3270  137.8320  151.9180 C   0  0  0  0  0  3  0  0  0  0  0  0
  140.3900  138.2580  153.2460 C   0  0  0  0  0  0  0  0  0  0  0  0
  141.6350  138.2450  153.8890 C   0  0  0  0  0  3  0  0  0  0  0  0
  142.8040  137.8260  153.2230 C   0  0  0  0  0  0  0  0  0  0  0  0
  143.6920  136.2050  150.0640 C   0  0  0  0  0  1  0  0  0  0  0  0
  143.8610  136.8900  151.3000 O   0  0  0  0  0  0  0  0  0  0  0  0
  143.9200  137.8560  154.0230 O   0  0  0  0  0  0  0  0  0  0  0  0
  144.8130  138.9490  153.8400 C   0  0  0  0  0  1  0  0  0  0  0  0
  136.6580  136.9820  157.9000 C   0  0  2  0  0  3  0  0  0  0  0  0
  136.7020  138.0850  158.9710 C   0  0  0  0  0  0  0  0  0  0  0  0
  135.8280  138.9430  159.0900 O   0  0  0  0  0  0  0  0  0  0  0  0
  137.7790  138.0490  159.7870 O   0  0  0  0  0  1  0  0  0  0  0  0
  136.6260  135.5750  158.5330 C   0  0  0  0  0  2  0  0  0  0  0  0
  135.2620  134.8420  158.4890 C   0  0  0  0  0  3  0  0  0  0  0  0
  134.2500  135.5270  159.4180 C   0  0  0  0  0  1  0  0  0  0  0  0
  134.6480  134.7690  157.0900 C   0  0  0  0  0  1  0  0  0  0  0  0
  1  5  1  0  0  0  0
  1  2  1  0  0  0  0
  2  4  1  0  0  0  0
  3  2  2  0  0  0  0
  4  6  1  0  0  0  0
  4 18  1  0  0  0  0
  7  1  1  0  0  0  0
  8 13  1  0  0  0  0
  9  8  2  0  0  0  0
  9 10  1  0  0  0  0
 10 11  2  0  0  0  0
 11 12  1  0  0  0  0
 11  7  1  0  0  0  0
 13 12  2  0  0  0  0
 13 16  1  0  0  0  0
 14 15  1  0  0  0  0
 15  8  1  0  0  0  0
 17 16  1  0  0  0  0
 18 22  1  1  0  0  0
 18 19  1  0  0  0  0
 19 20  2  0  0  0  0
 19 21  1  0  0  0  0
 23 22  1  0  0  0  0
 23 24  1  0  0  0  0
 25 23  1  0  0  0  0
M  END
>  <MODEL>
6

>  <REMARK>
 VINA RESULT:    -6.651      3.351      9.256
 INTER + INTRA:         -10.417
 INTER:                  -9.919
 INTRA:                  -0.498
 UNBOUND:                -0.655
  Name = CHEMBL1533771
  12 active torsions:
  status: ('A' for Active; 'I' for Inactive)
    1  A    between atoms: C_1  and  O_2
    2  A    between atoms: O_2  and  C_3
    3  A    between atoms: C_6  and  C_7
    4  A    between atoms: C_7  and  N_8
    5  A    between atoms: N_11  and  CA_12
    6  A    between atoms: CA_12  and  CB_13
    7  A    between atoms: CA_12  and  C_17
    8  A    between atoms: CB_13  and  CG_14
    9  A    between atoms: CG_14  and  CD1_15
   10  A    between atoms: CG_14  and  CD2_16
   11  A    between atoms: C_21  and  O_22
   12  A    between atoms: O_22  and  C_23
                            x       y       z     vdW  Elec       q    Type
                         _______ _______ _______ _____ _____    ______ ____

>  <TORSDO>
F 8

>  <SCORE>
-6.651

>  <RMSD_LB>
3.351

>  <RMSD_UB>
9.256

$$$$
CHEMBL1533771
 OpenBabel10162523343D

 25 25  0  0  1  0  0  0  0  0999 V2000
  137.2150  137.2580  149.5210 N   0  0  0  0  0  0  0  0  0  0  0  0
  136.1860  136.4060  149.1890 C   0  0  0  0  0  0  0  0  0  0  0  0
  136.2480  135.1870  149.2260 O   0  0  0  0  0  0  0  0  0  0  0  0
  135.0640  137.0970  148.8390 N   0  0  0  0  0  0  0  0  0  0  0  0
  137.1130  138.2280  149.3870 H   0  0  0  0  0  0  0  0  0  0  0  0
  135.1300  138.0760  148.7540 H   0  0  0  0  0  0  0  0  0  0  0  0
  138.4460  136.7310  150.0700 C   0  0  0  0  0  2  0  0  0  0  0  0
  139.4460  138.2880  154.0040 C   0  0  0  0  0  0  0  0  0  0  0  0
  140.4020  138.2370  152.9780 C   0  0  0  0  0  3  0  0  0  0  0  0
  140.0680  137.7690  151.6990 C   0  0  0  0  0  3  0  0  0  0  0  0
  138.7740  137.3250  151.4190 C   0  0  0  0  0  0  0  0  0  0  0  0
  137.8200  137.3690  152.4450 C   0  0  0  0  0  3  0  0  0  0  0  0
  138.1400  137.8570  153.7280 C   0  0  0  0  0  0  0  0  0  0  0  0
  141.0020  138.2080  155.8040 C   0  0  0  0  0  1  0  0  0  0  0  0
  139.7580  138.6640  155.2850 O   0  0  0  0  0  0  0  0  0  0  0  0
  137.0860  137.7960  154.6060 O   0  0  0  0  0  0  0  0  0  0  0  0
  136.6370  136.4990  154.9820 C   0  0  0  0  0  1  0  0  0  0  0  0
  133.7700  136.4730  148.5810 C   0  0  2  0  0  3  0  0  0  0  0  0
  133.2190  137.0290  147.2570 C   0  0  0  0  0  0  0  0  0  0  0  0
  132.0290  136.9790  146.9490 O   0  0  0  0  0  1  0  0  0  0  0  0
  134.1420  137.5860  146.4420 O   0  0  0  0  0  0  0  0  0  0  0  0
  132.7790  136.6870  149.7450 C   0  0  0  0  0  2  0  0  0  0  0  0
  132.6920  135.5400  150.7820 C   0  0  0  0  0  3  0  0  0  0  0  0
  132.8380  134.1760  150.0940 C   0  0  0  0  0  1  0  0  0  0  0  0
  133.7450  135.6300  151.8880 C   0  0  0  0  0  1  0  0  0  0  0  0
  1  7  1  0  0  0  0
  2  3  2  0  0  0  0
  2  1  1  0  0  0  0
  4  2  1  0  0  0  0
  5  1  1  0  0  0  0
  6  4  1  0  0  0  0
  7 11  1  0  0  0  0
  8 15  1  0  0  0  0
  9  8  2  0  0  0  0
 10  9  1  0  0  0  0
 11 10  2  0  0  0  0
 11 12  1  0  0  0  0
 12 13  2  0  0  0  0
 13  8  1  0  0  0  0
 13 16  1  0  0  0  0
 15 14  1  0  0  0  0
 16 17  1  0  0  0  0
 18  4  1  0  0  0  0
 18 22  1  1  0  0  0
 19 18  1  0  0  0  0
 20 19  1  0  0  0  0
 21 19  2  0  0  0  0
 22 23  1  0  0  0  0
 23 25  1  0  0  0  0
 24 23  1  0  0  0  0
M  END
>  <MODEL>
7

>  <REMARK>
 VINA RESULT:    -6.519      5.144     10.070
 INTER + INTRA:         -10.222
 INTER:                  -9.257
 INTRA:                  -0.965
 UNBOUND:                -0.655
  Name = CHEMBL1533771
  12 active torsions:
  status: ('A' for Active; 'I' for Inactive)
    1  A    between atoms: C_1  and  O_2
    2  A    between atoms: O_2  and  C_3
    3  A    between atoms: C_6  and  C_7
    4  A    between atoms: C_7  and  N_8
    5  A    between atoms: N_11  and  CA_12
    6  A    between atoms: CA_12  and  CB_13
    7  A    between atoms: CA_12  and  C_17
    8  A    between atoms: CB_13  and  CG_14
    9  A    between atoms: CG_14  and  CD1_15
   10  A    between atoms: CG_14  and  CD2_16
   11  A    between atoms: C_21  and  O_22
   12  A    between atoms: O_22  and  C_23
                            x       y       z     vdW  Elec       q    Type
                         _______ _______ _______ _____ _____    ______ ____

>  <TORSDO>
F 8

>  <SCORE>
-6.519

>  <RMSD_LB>
5.144

>  <RMSD_UB>
10.070

$$$$
CHEMBL1533771
 OpenBabel10162523343D

 25 25  0  0  1  0  0  0  0  0999 V2000
  144.4370  137.4790  152.1430 N   0  0  0  0  0  0  0  0  0  0  0  0
  145.4700  138.3700  151.9620 C   0  0  0  0  0  0  0  0  0  0  0  0
  145.9280  138.7000  150.8790 O   0  0  0  0  0  0  0  0  0  0  0  0
  145.9050  138.8730  153.1520 N   0  0  0  0  0  0  0  0  0  0  0  0
  144.1790  137.2030  153.0520 H   0  0  0  0  0  0  0  0  0  0  0  0
  145.5370  138.4880  153.9800 H   0  0  0  0  0  0  0  0  0  0  0  0
  143.7270  136.9480  150.9990 C   0  0  0  0  0  2  0  0  0  0  0  0
  139.4330  137.5760  151.2470 C   0  0  0  0  0  0  0  0  0  0  0  0
  140.2610  137.7700  152.3630 C   0  0  0  0  0  3  0  0  0  0  0  0
  141.6510  137.6030  152.2710 C   0  0  0  0  0  3  0  0  0  0  0  0
  142.2440  137.2210  151.0660 C   0  0  0  0  0  0  0  0  0  0  0  0
  141.4160  137.0200  149.9530 C   0  0  0  0  0  3  0  0  0  0  0  0
  140.0210  137.2060  150.0290 C   0  0  0  0  0  0  0  0  0  0  0  0
  137.4440  137.0090  152.4270 C   0  0  0  0  0  1  0  0  0  0  0  0
  138.0660  137.6530  151.3220 O   0  0  0  0  0  0  0  0  0  0  0  0
  139.3760  136.9350  148.8470 O   0  0  0  0  0  0  0  0  0  0  0  0
  139.2070  138.0220  147.9440 C   0  0  0  0  0  1  0  0  0  0  0  0
  146.8860  139.9480  153.2740 C   0  0  2  0  0  3  0  0  0  0  0  0
  147.7520  139.6750  154.5140 C   0  0  0  0  0  0  0  0  0  0  0  0
  148.8930  140.1140  154.6490 O   0  0  0  0  0  0  0  0  0  0  0  0
  147.1690  138.9100  155.4640 O   0  0  0  0  0  1  0  0  0  0  0  0
  146.2190  141.3380  153.3390 C   0  0  0  0  0  2  0  0  0  0  0  0
  146.5560  142.3090  152.1810 C   0  0  0  0  0  3  0  0  0  0  0  0
  147.8800  141.9130  151.5120 C   0  0  0  0  0  1  0  0  0  0  0  0
  145.4780  142.3730  151.0980 C   0  0  0  0  0  1  0  0  0  0  0  0
  1  5  1  0  0  0  0
  2  1  1  0  0  0  0
  2  4  1  0  0  0  0
  3  2  2  0  0  0  0
  4 18  1  0  0  0  0
  4  6  1  0  0  0  0
  7 11  1  0  0  0  0
  7  1  1  0  0  0  0
  8 15  1  0  0  0  0
  8  9  1  0  0  0  0
 10  9  2  0  0  0  0
 11 10  1  0  0  0  0
 12 13  1  0  0  0  0
 12 11  2  0  0  0  0
 13  8  2  0  0  0  0
 15 14  1  0  0  0  0
 16 13  1  0  0  0  0
 17 16  1  0  0  0  0
 18 22  1  1  0  0  0
 18 19  1  0  0  0  0
 19 20  2  0  0  0  0
 19 21  1  0  0  0  0
 23 22  1  0  0  0  0
 24 23  1  0  0  0  0
 25 23  1  0  0  0  0
M  END
>  <MODEL>
8

>  <REMARK>
 VINA RESULT:    -6.471      2.231      3.367
 INTER + INTRA:         -10.152
 INTER:                  -9.311
 INTRA:                  -0.841
 UNBOUND:                -0.655
  Name = CHEMBL1533771
  12 active torsions:
  status: ('A' for Active; 'I' for Inactive)
    1  A    between atoms: C_1  and  O_2
    2  A    between atoms: O_2  and  C_3
    3  A    between atoms: C_6  and  C_7
    4  A    between atoms: C_7  and  N_8
    5  A    between atoms: N_11  and  CA_12
    6  A    between atoms: CA_12  and  CB_13
    7  A    between atoms: CA_12  and  C_17
    8  A    between atoms: CB_13  and  CG_14
    9  A    between atoms: CG_14  and  CD1_15
   10  A    between atoms: CG_14  and  CD2_16
   11  A    between atoms: C_21  and  O_22
   12  A    between atoms: O_22  and  C_23
                            x       y       z     vdW  Elec       q    Type
                         _______ _______ _______ _____ _____    ______ ____

>  <TORSDO>
F 8

>  <SCORE>
-6.471

>  <RMSD_LB>
2.231

>  <RMSD_UB>
3.367

$$$$
CHEMBL1533771
 OpenBabel10162523343D

 25 25  0  0  1  0  0  0  0  0999 V2000
  139.6150  138.1870  154.8280 N   0  0  0  0  0  0  0  0  0  0  0  0
  138.2880  138.0280  155.1540 C   0  0  0  0  0  0  0  0  0  0  0  0
  137.3600  138.0990  154.3630 O   0  0  0  0  0  0  0  0  0  0  0  0
  138.1330  137.7430  156.4780 N   0  0  0  0  0  0  0  0  0  0  0  0
  140.2980  138.1960  155.5370 H   0  0  0  0  0  0  0  0  0  0  0  0
  138.9270  137.7890  157.0580 H   0  0  0  0  0  0  0  0  0  0  0  0
  140.0110  138.3420  153.4440 C   0  0  0  0  0  2  0  0  0  0  0  0
  144.2980  138.0250  152.8010 C   0  0  0  0  0  0  0  0  0  0  0  0
  143.7780  138.7620  153.8760 C   0  0  0  0  0  3  0  0  0  0  0  0
  142.3950  138.8330  154.1030 C   0  0  0  0  0  3  0  0  0  0  0  0
  141.5000  138.1820  153.2520 C   0  0  0  0  0  0  0  0  0  0  0  0
  142.0200  137.4510  152.1750 C   0  0  0  0  0  3  0  0  0  0  0  0
  143.4070  137.3570  151.9490 C   0  0  0  0  0  0  0  0  0  0  0  0
  146.2390  139.2390  152.1440 C   0  0  0  0  0  1  0  0  0  0  0  0
  145.6370  138.0010  152.5040 O   0  0  0  0  0  0  0  0  0  0  0  0
  143.7230  136.6230  150.8320 O   0  0  0  0  0  0  0  0  0  0  0  0
  142.7790  136.6350  149.7670 C   0  0  0  0  0  1  0  0  0  0  0  0
  136.8590  137.3750  157.0890 C   0  0  2  0  0  3  0  0  0  0  0  0
  136.8950  137.7880  158.5700 C   0  0  0  0  0  0  0  0  0  0  0  0
  137.8110  138.4450  159.0630 O   0  0  0  0  0  0  0  0  0  0  0  0
  135.8390  137.3770  159.3060 O   0  0  0  0  0  1  0  0  0  0  0  0
  136.5480  135.8720  156.9240 C   0  0  0  0  0  2  0  0  0  0  0  0
  135.2530  135.5290  156.1470 C   0  0  0  0  0  3  0  0  0  0  0  0
  135.5830  135.0980  154.7120 C   0  0  0  0  0  1  0  0  0  0  0  0
  134.4220  134.4210  156.7970 C   0  0  0  0  0  1  0  0  0  0  0  0
  1  2  1  0  0  0  0
  1  5  1  0  0  0  0
  2  4  1  0  0  0  0
  3  2  2  0  0  0  0
  4  6  1  0  0  0  0
  4 18  1  0  0  0  0
  7  1  1  0  0  0  0
  8  9  1  0  0  0  0
  9 10  2  0  0  0  0
 11  7  1  0  0  0  0
 11 10  1  0  0  0  0
 12 11  2  0  0  0  0
 13 12  1  0  0  0  0
 13  8  2  0  0  0  0
 14 15  1  0  0  0  0
 15  8  1  0  0  0  0
 16 13  1  0  0  0  0
 17 16  1  0  0  0  0
 18 22  1  1  0  0  0
 18 19  1  0  0  0  0
 19 20  2  0  0  0  0
 19 21  1  0  0  0  0
 23 25  1  0  0  0  0
 23 22  1  0  0  0  0
 24 23  1  0  0  0  0
M  END
>  <MODEL>
9

>  <REMARK>
 VINA RESULT:    -6.071      2.760      9.181
 INTER + INTRA:          -9.565
 INTER:                  -8.910
 INTRA:                  -0.655
 UNBOUND:                -0.655
  Name = CHEMBL1533771
  12 active torsions:
  status: ('A' for Active; 'I' for Inactive)
    1  A    between atoms: C_1  and  O_2
    2  A    between atoms: O_2  and  C_3
    3  A    between atoms: C_6  and  C_7
    4  A    between atoms: C_7  and  N_8
    5  A    between atoms: N_11  and  CA_12
    6  A    between atoms: CA_12  and  CB_13
    7  A    between atoms: CA_12  and  C_17
    8  A    between atoms: CB_13  and  CG_14
    9  A    between atoms: CG_14  and  CD1_15
   10  A    between atoms: CG_14  and  CD2_16
   11  A    between atoms: C_21  and  O_22
   12  A    between atoms: O_22  and  C_23
                            x       y       z     vdW  Elec       q    Type
                         _______ _______ _______ _____ _____    ______ ____

>  <TORSDO>
F 8

>  <SCORE>
-6.071

>  <RMSD_LB>
2.760

>  <RMSD_UB>
9.181

$$$$
