CHEMBL4974456
 OpenBabel10172500473D

 28 29  0  0  0  0  0  0  0  0999 V2000
  143.0790  138.5570  153.7760 N   0  0  0  0  0  0  0  0  0  0  0  0
  142.8270  139.4050  154.8410 C   0  0  0  0  0  0  0  0  0  0  0  0
  141.7170  139.6360  155.3040 O   0  0  0  0  0  0  0  0  0  0  0  0
  144.0030  138.4540  153.4530 H   0  0  0  0  0  0  0  0  0  0  0  0
  142.0210  137.8190  153.1240 C   0  0  0  0  0  2  0  0  0  0  0  0
  143.2100  136.3540  149.2090 C   0  0  0  0  0  0  0  0  0  0  0  0
  141.8600  136.5550  149.5310 C   0  0  0  0  0  3  0  0  0  0  0  0
  141.4730  137.0130  150.7950 C   0  0  0  0  0  3  0  0  0  0  0  0
  142.4280  137.2680  151.7830 C   0  0  0  0  0  0  0  0  0  0  0  0
  143.7740  137.0250  151.4760 C   0  0  0  0  0  3  0  0  0  0  0  0
  144.1800  136.5930  150.1930 C   0  0  0  0  0  0  0  0  0  0  0  0
  142.6410  136.0040  146.9380 C   0  0  0  0  0  1  0  0  0  0  0  0
  143.5960  135.8650  147.9890 O   0  0  0  0  0  0  0  0  0  0  0  0
  145.5370  136.4340  150.0890 O   0  0  0  0  0  0  0  0  0  0  0  0
  146.2170  135.8980  151.2200 C   0  0  0  0  0  1  0  0  0  0  0  0
  144.0870  140.0260  155.4310 C   0  0  0  0  0  2  0  0  0  0  0  0
  145.2690  139.1430  155.3450 N   0  0  0  0  0  0  0  0  0  0  0  0
  144.9390  138.2170  155.0750 H   0  0  0  0  0  0  0  0  0  0  0  0
  146.4970  139.5840  154.2560 S   0  0  0  0  0  0  0  0  0  0  0  0
  147.7310  139.2730  154.9410 O   0  0  0  0  0  0  0  0  0  0  0  0
  146.1780  138.9820  152.9830 O   0  0  0  0  0  0  0  0  0  0  0  0
  146.2920  141.3710  154.1700 C   0  0  0  0  0  2  0  0  0  0  0  0
  146.6010  141.8550  152.7800 C   0  0  0  0  0  0  0  0  0  0  0  0
  147.9230  141.8820  152.3100 C   0  0  0  0  0  3  0  0  0  0  0  0
  148.2030  142.2830  151.0030 C   0  0  0  0  0  3  0  0  0  0  0  0
  147.1650  142.6550  150.1520 C   0  0  0  0  0  3  0  0  0  0  0  0
  145.8510  142.6560  150.6170 C   0  0  0  0  0  3  0  0  0  0  0  0
  145.5700  142.2690  151.9270 C   0  0  0  0  0  3  0  0  0  0  0  0
  1  2  1  0  0  0  0
  2  3  2  0  0  0  0
  2 16  1  0  0  0  0
  4  1  1  0  0  0  0
  5  1  1  0  0  0  0
  6  7  2  0  0  0  0
  6 11  1  0  0  0  0
  7  8  1  0  0  0  0
  8  9  2  0  0  0  0
  9  5  1  0  0  0  0
 10  9  1  0  0  0  0
 11 10  2  0  0  0  0
 12 13  1  0  0  0  0
 13  6  1  0  0  0  0
 14 11  1  0  0  0  0
 14 15  1  0  0  0  0
 17 16  1  0  0  0  0
 18 17  1  0  0  0  0
 19 20  2  0  0  0  0
 19 17  1  0  0  0  0
 21 19  2  0  0  0  0
 22 19  1  0  0  0  0
 23 22  1  0  0  0  0
 24 23  1  0  0  0  0
 25 24  2  0  0  0  0
 26 27  2  0  0  0  0
 26 25  1  0  0  0  0
 27 28  1  0  0  0  0
 28 23  2  0  0  0  0
M  END
>  <MODEL>
1

>  <REMARK>
 VINA RESULT:    -7.603      0.000      0.000
 INTER + INTRA:         -12.572
 INTER:                 -11.299
 INTRA:                  -1.273
 UNBOUND:                -0.968
  Name = CHEMBL4974456
  11 active torsions:
  status: ('A' for Active; 'I' for Inactive)
    1  A    between atoms: C_1  and  O_2
    2  A    between atoms: O_2  and  C_3
    3  A    between atoms: C_6  and  C_7
    4  A    between atoms: C_7  and  N_8
    5  A    between atoms: C_9  and  C_11
    6  A    between atoms: C_11  and  N_12
    7  A    between atoms: N_12  and  S_13
    8  A    between atoms: S_13  and  C_16
    9  A    between atoms: C_16  and  C_17
   10  A    between atoms: C_24  and  O_25
   11  A    between atoms: O_25  and  C_26
                            x       y       z     vdW  Elec       q    Type
                         _______ _______ _______ _____ _____    ______ ____

>  <TORSDO>
F 9

>  <SCORE>
-7.603

>  <RMSD_LB>
0.000

>  <RMSD_UB>
0.000

$$$$
CHEMBL4974456
 OpenBabel10172500473D

 28 29  0  0  0  0  0  0  0  0999 V2000
  140.4210  138.9750  153.9280 N   0  0  0  0  0  0  0  0  0  0  0  0
  141.5480  139.0160  154.7310 C   0  0  0  0  0  0  0  0  0  0  0  0
  141.5430  138.9020  155.9510 O   0  0  0  0  0  0  0  0  0  0  0  0
  140.5200  139.1050  152.9570 H   0  0  0  0  0  0  0  0  0  0  0  0
  139.1040  138.7490  154.4760 C   0  0  0  0  0  2  0  0  0  0  0  0
  136.6990  136.1660  151.9410 C   0  0  0  0  0  0  0  0  0  0  0  0
  137.6430  137.0450  151.3950 C   0  0  0  0  0  3  0  0  0  0  0  0
  138.4100  137.8880  152.2070 C   0  0  0  0  0  3  0  0  0  0  0  0
  138.2390  137.8880  153.5940 C   0  0  0  0  0  0  0  0  0  0  0  0
  137.2640  137.0400  154.1370 C   0  0  0  0  0  3  0  0  0  0  0  0
  136.5070  136.1610  153.3300 C   0  0  0  0  0  0  0  0  0  0  0  0
  134.7090  135.9660  150.6740 C   0  0  0  0  0  1  0  0  0  0  0  0
  135.9130  135.3680  151.1510 O   0  0  0  0  0  0  0  0  0  0  0  0
  135.6230  135.4030  154.0520 O   0  0  0  0  0  0  0  0  0  0  0  0
  134.3590  135.9870  154.3520 C   0  0  0  0  0  1  0  0  0  0  0  0
  142.8440  139.1910  153.9470 C   0  0  0  0  0  2  0  0  0  0  0  0
  143.8860  139.9230  154.6970 N   0  0  0  0  0  0  0  0  0  0  0  0
  143.8480  139.6020  155.6640 H   0  0  0  0  0  0  0  0  0  0  0  0
  145.4920  139.7580  154.1660 S   0  0  0  0  0  0  0  0  0  0  0  0
  146.1650  139.0530  155.2340 O   0  0  0  0  0  0  0  0  0  0  0  0
  145.4480  139.2190  152.8280 O   0  0  0  0  0  0  0  0  0  0  0  0
  146.0490  141.4700  154.1330 C   0  0  0  0  0  2  0  0  0  0  0  0
  146.4770  141.8410  152.7400 C   0  0  0  0  0  0  0  0  0  0  0  0
  145.5340  142.2660  151.7910 C   0  0  0  0  0  3  0  0  0  0  0  0
  145.9400  142.6590  150.5150 C   0  0  0  0  0  3  0  0  0  0  0  0
  147.2900  142.6380  150.1770 C   0  0  0  0  0  3  0  0  0  0  0  0
  148.2320  142.1940  151.1030 C   0  0  0  0  0  3  0  0  0  0  0  0
  147.8290  141.7870  152.3750 C   0  0  0  0  0  3  0  0  0  0  0  0
  1  5  1  0  0  0  0
  1  2  1  0  0  0  0
  2  3  2  0  0  0  0
  4  1  1  0  0  0  0
  6 11  1  0  0  0  0
  7  6  2  0  0  0  0
  7  8  1  0  0  0  0
  8  9  2  0  0  0  0
  9 10  1  0  0  0  0
  9  5  1  0  0  0  0
 11 14  1  0  0  0  0
 11 10  2  0  0  0  0
 12 13  1  0  0  0  0
 13  6  1  0  0  0  0
 14 15  1  0  0  0  0
 16 17  1  0  0  0  0
 16  2  1  0  0  0  0
 17 18  1  0  0  0  0
 19 17  1  0  0  0  0
 19 20  2  0  0  0  0
 21 19  2  0  0  0  0
 22 19  1  0  0  0  0
 23 22  1  0  0  0  0
 24 23  2  0  0  0  0
 25 24  1  0  0  0  0
 26 25  2  0  0  0  0
 26 27  1  0  0  0  0
 27 28  2  0  0  0  0
 28 23  1  0  0  0  0
M  END
>  <MODEL>
2

>  <REMARK>
 VINA RESULT:    -7.424      3.864      5.155
 INTER + INTRA:         -12.299
 INTER:                 -11.814
 INTRA:                  -0.485
 UNBOUND:                -0.968
  Name = CHEMBL4974456
  11 active torsions:
  status: ('A' for Active; 'I' for Inactive)
    1  A    between atoms: C_1  and  O_2
    2  A    between atoms: O_2  and  C_3
    3  A    between atoms: C_6  and  C_7
    4  A    between atoms: C_7  and  N_8
    5  A    between atoms: C_9  and  C_11
    6  A    between atoms: C_11  and  N_12
    7  A    between atoms: N_12  and  S_13
    8  A    between atoms: S_13  and  C_16
    9  A    between atoms: C_16  and  C_17
   10  A    between atoms: C_24  and  O_25
   11  A    between atoms: O_25  and  C_26
                            x       y       z     vdW  Elec       q    Type
                         _______ _______ _______ _____ _____    ______ ____

>  <TORSDO>
F 9

>  <SCORE>
-7.424

>  <RMSD_LB>
3.864

>  <RMSD_UB>
5.155

$$$$
CHEMBL4974456
 OpenBabel10172500473D

 28 29  0  0  0  0  0  0  0  0999 V2000
  142.8940  139.6270  152.3580 N   0  0  0  0  0  0  0  0  0  0  0  0
  142.4760  138.8420  153.4200 C   0  0  0  0  0  0  0  0  0  0  0  0
  141.5640  138.0260  153.3700 O   0  0  0  0  0  0  0  0  0  0  0  0
  143.6190  140.2770  152.5000 H   0  0  0  0  0  0  0  0  0  0  0  0
  142.2940  139.5160  151.0480 C   0  0  0  0  0  2  0  0  0  0  0  0
  145.2150  138.2720  148.0800 C   0  0  0  0  0  0  0  0  0  0  0  0
  144.7970  139.6070  148.1740 C   0  0  0  0  0  3  0  0  0  0  0  0
  143.8460  140.0080  149.1190 C   0  0  0  0  0  3  0  0  0  0  0  0
  143.2720  139.0780  149.9890 C   0  0  0  0  0  0  0  0  0  0  0  0
  143.6570  137.7360  149.8680 C   0  0  0  0  0  3  0  0  0  0  0  0
  144.6400  137.3240  148.9390 C   0  0  0  0  0  0  0  0  0  0  0  0
  147.4630  138.2740  147.3370 C   0  0  0  0  0  1  0  0  0  0  0  0
  146.1130  137.8620  147.1300 O   0  0  0  0  0  0  0  0  0  0  0  0
  144.8900  135.9780  148.9900 O   0  0  0  0  0  0  0  0  0  0  0  0
  144.0430  135.1300  148.2220 C   0  0  0  0  0  1  0  0  0  0  0  0
  143.2870  139.0620  154.6910 C   0  0  0  0  0  2  0  0  0  0  0  0
  144.2610  140.1680  154.5780 N   0  0  0  0  0  0  0  0  0  0  0  0
  144.2580  140.6690  155.4670 H   0  0  0  0  0  0  0  0  0  0  0  0
  145.8730  139.7570  154.2310 S   0  0  0  0  0  0  0  0  0  0  0  0
  146.3280  139.0210  155.3890 O   0  0  0  0  0  0  0  0  0  0  0  0
  145.8900  139.1610  152.9160 O   0  0  0  0  0  0  0  0  0  0  0  0
  146.6690  141.3710  154.1950 C   0  0  0  0  0  2  0  0  0  0  0  0
  146.7690  141.8620  152.7770 C   0  0  0  0  0  0  0  0  0  0  0  0
  148.0050  141.8810  152.1130 C   0  0  0  0  0  3  0  0  0  0  0  0
  148.0890  142.2880  150.7820 C   0  0  0  0  0  3  0  0  0  0  0  0
  146.9380  142.6730  150.0990 C   0  0  0  0  0  3  0  0  0  0  0  0
  145.7090  142.6820  150.7560 C   0  0  0  0  0  3  0  0  0  0  0  0
  145.6240  142.2890  152.0920 C   0  0  0  0  0  3  0  0  0  0  0  0
  1  4  1  0  0  0  0
  1  2  1  0  0  0  0
  2 16  1  0  0  0  0
  3  2  2  0  0  0  0
  5  1  1  0  0  0  0
  6  7  2  0  0  0  0
  6 11  1  0  0  0  0
  7  8  1  0  0  0  0
  8  9  2  0  0  0  0
  9  5  1  0  0  0  0
 10  9  1  0  0  0  0
 11 14  1  0  0  0  0
 11 10  2  0  0  0  0
 13 12  1  0  0  0  0
 13  6  1  0  0  0  0
 15 14  1  0  0  0  0
 17 16  1  0  0  0  0
 17 18  1  0  0  0  0
 19 17  1  0  0  0  0
 19 20  2  0  0  0  0
 21 19  2  0  0  0  0
 22 19  1  0  0  0  0
 23 22  1  0  0  0  0
 24 23  1  0  0  0  0
 25 24  2  0  0  0  0
 26 27  2  0  0  0  0
 26 25  1  0  0  0  0
 27 28  1  0  0  0  0
 28 23  2  0  0  0  0
M  END
>  <MODEL>
3

>  <REMARK>
 VINA RESULT:    -7.012      2.019      2.335
 INTER + INTRA:         -11.670
 INTER:                 -10.099
 INTRA:                  -1.571
 UNBOUND:                -0.968
  Name = CHEMBL4974456
  11 active torsions:
  status: ('A' for Active; 'I' for Inactive)
    1  A    between atoms: C_1  and  O_2
    2  A    between atoms: O_2  and  C_3
    3  A    between atoms: C_6  and  C_7
    4  A    between atoms: C_7  and  N_8
    5  A    between atoms: C_9  and  C_11
    6  A    between atoms: C_11  and  N_12
    7  A    between atoms: N_12  and  S_13
    8  A    between atoms: S_13  and  C_16
    9  A    between atoms: C_16  and  C_17
   10  A    between atoms: C_24  and  O_25
   11  A    between atoms: O_25  and  C_26
                            x       y       z     vdW  Elec       q    Type
                         _______ _______ _______ _____ _____    ______ ____

>  <TORSDO>
F 9

>  <SCORE>
-7.012

>  <RMSD_LB>
2.019

>  <RMSD_UB>
2.335

$$$$
CHEMBL4974456
 OpenBabel10172500473D

 28 29  0  0  0  0  0  0  0  0999 V2000
  138.3300  136.6750  150.2660 N   0  0  0  0  0  0  0  0  0  0  0  0
  137.2670  137.4670  149.8640 C   0  0  0  0  0  0  0  0  0  0  0  0
  137.3550  138.6470  149.5470 O   0  0  0  0  0  0  0  0  0  0  0  0
  138.1590  135.7420  150.5290 H   0  0  0  0  0  0  0  0  0  0  0  0
  139.6820  137.1810  150.3090 C   0  0  0  0  0  2  0  0  0  0  0  0
  140.9300  138.5540  154.2390 C   0  0  0  0  0  0  0  0  0  0  0  0
  141.8300  137.9220  153.3700 C   0  0  0  0  0  3  0  0  0  0  0  0
  141.4290  137.4660  152.1100 C   0  0  0  0  0  3  0  0  0  0  0  0
  140.1050  137.6150  151.6880 C   0  0  0  0  0  0  0  0  0  0  0  0
  139.1940  138.2080  152.5730 C   0  0  0  0  0  3  0  0  0  0  0  0
  139.5940  138.7010  153.8350 C   0  0  0  0  0  0  0  0  0  0  0  0
  142.5180  139.7100  155.5600 C   0  0  0  0  0  1  0  0  0  0  0  0
  141.3030  138.9650  155.4910 O   0  0  0  0  0  0  0  0  0  0  0  0
  138.5620  139.2620  154.5400 O   0  0  0  0  0  0  0  0  0  0  0  0
  137.7350  138.3800  155.2930 C   0  0  0  0  0  1  0  0  0  0  0  0
  135.9400  136.7200  149.8180 C   0  0  0  0  0  2  0  0  0  0  0  0
  136.0060  135.3730  150.4210 N   0  0  0  0  0  0  0  0  0  0  0  0
  136.9870  135.0940  150.4380 H   0  0  0  0  0  0  0  0  0  0  0  0
  135.3970  135.1920  151.9980 S   0  0  0  0  0  0  0  0  0  0  0  0
  136.1270  134.0730  152.5520 O   0  0  0  0  0  0  0  0  0  0  0  0
  135.4360  136.4910  152.6250 O   0  0  0  0  0  0  0  0  0  0  0  0
  133.6940  134.7010  151.6830 C   0  0  0  0  0  2  0  0  0  0  0  0
  133.5740  134.1250  150.2990 C   0  0  0  0  0  0  0  0  0  0  0  0
  132.9380  134.8470  149.2770 C   0  0  0  0  0  3  0  0  0  0  0  0
  132.8720  134.3340  147.9820 C   0  0  0  0  0  3  0  0  0  0  0  0
  133.4470  133.0990  147.6920 C   0  0  0  0  0  3  0  0  0  0  0  0
  134.0590  132.3630  148.7050 C   0  0  0  0  0  3  0  0  0  0  0  0
  134.1140  132.8670  150.0050 C   0  0  0  0  0  3  0  0  0  0  0  0
  1  5  1  0  0  0  0
  1  4  1  0  0  0  0
  2  1  1  0  0  0  0
  3  2  2  0  0  0  0
  5  9  1  0  0  0  0
  6 13  1  0  0  0  0
  7  6  2  0  0  0  0
  8  7  1  0  0  0  0
  9  8  2  0  0  0  0
  9 10  1  0  0  0  0
 10 11  2  0  0  0  0
 11  6  1  0  0  0  0
 11 14  1  0  0  0  0
 13 12  1  0  0  0  0
 14 15  1  0  0  0  0
 16  2  1  0  0  0  0
 16 17  1  0  0  0  0
 17 18  1  0  0  0  0
 17 19  1  0  0  0  0
 19 20  2  0  0  0  0
 19 21  2  0  0  0  0
 22 19  1  0  0  0  0
 23 22  1  0  0  0  0
 24 23  2  0  0  0  0
 25 24  1  0  0  0  0
 26 25  2  0  0  0  0
 26 27  1  0  0  0  0
 27 28  2  0  0  0  0
 28 23  1  0  0  0  0
M  END
>  <MODEL>
4

>  <REMARK>
 VINA RESULT:    -6.926      6.468     10.884
 INTER + INTRA:         -11.538
 INTER:                 -11.112
 INTRA:                  -0.426
 UNBOUND:                -0.968
  Name = CHEMBL4974456
  11 active torsions:
  status: ('A' for Active; 'I' for Inactive)
    1  A    between atoms: C_1  and  O_2
    2  A    between atoms: O_2  and  C_3
    3  A    between atoms: C_6  and  C_7
    4  A    between atoms: C_7  and  N_8
    5  A    between atoms: C_9  and  C_11
    6  A    between atoms: C_11  and  N_12
    7  A    between atoms: N_12  and  S_13
    8  A    between atoms: S_13  and  C_16
    9  A    between atoms: C_16  and  C_17
   10  A    between atoms: C_24  and  O_25
   11  A    between atoms: O_25  and  C_26
                            x       y       z     vdW  Elec       q    Type
                         _______ _______ _______ _____ _____    ______ ____

>  <TORSDO>
F 9

>  <SCORE>
-6.926

>  <RMSD_LB>
6.468

>  <RMSD_UB>
10.884

$$$$
CHEMBL4974456
 OpenBabel10172500473D

 28 29  0  0  0  0  0  0  0  0999 V2000
  141.6570  139.0410  152.6080 N   0  0  0  0  0  0  0  0  0  0  0  0
  141.9270  138.5350  153.8680 C   0  0  0  0  0  0  0  0  0  0  0  0
  141.0770  138.1800  154.6760 O   0  0  0  0  0  0  0  0  0  0  0  0
  142.4060  139.3260  152.0360 H   0  0  0  0  0  0  0  0  0  0  0  0
  140.3070  139.1610  152.1090 C   0  0  0  0  0  2  0  0  0  0  0  0
  139.1780  136.0200  149.3270 C   0  0  0  0  0  0  0  0  0  0  0  0
  138.2220  136.6610  150.1260 C   0  0  0  0  0  3  0  0  0  0  0  0
  138.5830  137.6630  151.0330 C   0  0  0  0  0  3  0  0  0  0  0  0
  139.9200  138.0410  151.1790 C   0  0  0  0  0  0  0  0  0  0  0  0
  140.8830  137.3700  150.4120 C   0  0  0  0  0  3  0  0  0  0  0  0
  140.5260  136.3800  149.4690 C   0  0  0  0  0  0  0  0  0  0  0  0
  137.4520  134.9020  148.1540 C   0  0  0  0  0  1  0  0  0  0  0  0
  138.8400  135.0080  148.4670 O   0  0  0  0  0  0  0  0  0  0  0  0
  141.6070  135.8590  148.8080 O   0  0  0  0  0  0  0  0  0  0  0  0
  142.8910  136.0890  149.3790 C   0  0  0  0  0  1  0  0  0  0  0  0
  143.4170  138.4220  154.1690 C   0  0  0  0  0  2  0  0  0  0  0  0
  144.1320  139.7110  154.0700 N   0  0  0  0  0  0  0  0  0  0  0  0
  143.8580  140.2750  154.8750 H   0  0  0  0  0  0  0  0  0  0  0  0
  145.8300  139.6620  154.0370 S   0  0  0  0  0  0  0  0  0  0  0  0
  146.2090  139.0400  155.2860 O   0  0  0  0  0  0  0  0  0  0  0  0
  146.2180  139.0880  152.7700 O   0  0  0  0  0  0  0  0  0  0  0  0
  146.2530  141.4120  154.0860 C   0  0  0  0  0  2  0  0  0  0  0  0
  146.5760  141.8990  152.7000 C   0  0  0  0  0  0  0  0  0  0  0  0
  147.9040  141.9340  152.2460 C   0  0  0  0  0  3  0  0  0  0  0  0
  148.1970  142.3390  150.9440 C   0  0  0  0  0  3  0  0  0  0  0  0
  147.1680  142.7040  150.0800 C   0  0  0  0  0  3  0  0  0  0  0  0
  145.8480  142.6970  150.5290 C   0  0  0  0  0  3  0  0  0  0  0  0
  145.5530  142.3070  151.8350 C   0  0  0  0  0  3  0  0  0  0  0  0
  1  2  1  0  0  0  0
  2 16  1  0  0  0  0
  2  3  2  0  0  0  0
  4  1  1  0  0  0  0
  5  1  1  0  0  0  0
  6 11  2  0  0  0  0
  6  7  1  0  0  0  0
  7  8  2  0  0  0  0
  8  9  1  0  0  0  0
  9  5  1  0  0  0  0
 10  9  2  0  0  0  0
 11 10  1  0  0  0  0
 12 13  1  0  0  0  0
 13  6  1  0  0  0  0
 14 15  1  0  0  0  0
 14 11  1  0  0  0  0
 17 16  1  0  0  0  0
 17 18  1  0  0  0  0
 19 17  1  0  0  0  0
 19 22  1  0  0  0  0
 19 20  2  0  0  0  0
 21 19  2  0  0  0  0
 23 22  1  0  0  0  0
 24 23  1  0  0  0  0
 25 24  2  0  0  0  0
 26 27  2  0  0  0  0
 26 25  1  0  0  0  0
 27 28  1  0  0  0  0
 28 23  2  0  0  0  0
M  END
>  <MODEL>
5

>  <REMARK>
 VINA RESULT:    -6.682      2.027      2.635
 INTER + INTRA:         -11.166
 INTER:                 -10.465
 INTRA:                  -0.701
 UNBOUND:                -0.968
  Name = CHEMBL4974456
  11 active torsions:
  status: ('A' for Active; 'I' for Inactive)
    1  A    between atoms: C_1  and  O_2
    2  A    between atoms: O_2  and  C_3
    3  A    between atoms: C_6  and  C_7
    4  A    between atoms: C_7  and  N_8
    5  A    between atoms: C_9  and  C_11
    6  A    between atoms: C_11  and  N_12
    7  A    between atoms: N_12  and  S_13
    8  A    between atoms: S_13  and  C_16
    9  A    between atoms: C_16  and  C_17
   10  A    between atoms: C_24  and  O_25
   11  A    between atoms: O_25  and  C_26
                            x       y       z     vdW  Elec       q    Type
                         _______ _______ _______ _____ _____    ______ ____

>  <TORSDO>
F 9

>  <SCORE>
-6.682

>  <RMSD_LB>
2.027

>  <RMSD_UB>
2.635

$$$$
CHEMBL4974456
 OpenBabel10172500473D

 28 29  0  0  0  0  0  0  0  0999 V2000
  138.4490  137.3800  151.9850 N   0  0  0  0  0  0  0  0  0  0  0  0
  137.3010  137.0200  152.6700 C   0  0  0  0  0  0  0  0  0  0  0  0
  137.0570  137.3200  153.8330 O   0  0  0  0  0  0  0  0  0  0  0  0
  138.5710  137.0680  151.0590 H   0  0  0  0  0  0  0  0  0  0  0  0
  139.4720  138.1990  152.5920 C   0  0  0  0  0  2  0  0  0  0  0  0
  143.5260  137.0400  151.5390 C   0  0  0  0  0  0  0  0  0  0  0  0
  142.4750  136.9230  150.6200 C   0  0  0  0  0  3  0  0  0  0  0  0
  141.1660  137.2820  150.9600 C   0  0  0  0  0  3  0  0  0  0  0  0
  140.8670  137.7540  152.2410 C   0  0  0  0  0  0  0  0  0  0  0  0
  141.9110  137.8310  153.1740 C   0  0  0  0  0  3  0  0  0  0  0  0
  143.2420  137.5020  152.8330 C   0  0  0  0  0  0  0  0  0  0  0  0
  144.9740  136.0650  149.9400 C   0  0  0  0  0  1  0  0  0  0  0  0
  144.8030  136.6510  151.2300 O   0  0  0  0  0  0  0  0  0  0  0  0
  144.1150  137.6630  153.8770 O   0  0  0  0  0  0  0  0  0  0  0  0
  144.7480  138.9310  154.0050 C   0  0  0  0  0  1  0  0  0  0  0  0
  136.3170  136.2190  151.8260 C   0  0  0  0  0  2  0  0  0  0  0  0
  135.6710  135.1180  152.5690 N   0  0  0  0  0  0  0  0  0  0  0  0
  135.8910  135.2460  153.5570 H   0  0  0  0  0  0  0  0  0  0  0  0
  133.9820  134.9730  152.4390 S   0  0  0  0  0  0  0  0  0  0  0  0
  133.5130  134.8480  153.8010 O   0  0  0  0  0  0  0  0  0  0  0  0
  133.5240  136.0450  151.5870 O   0  0  0  0  0  0  0  0  0  0  0  0
  133.8100  133.3900  151.5980 C   0  0  0  0  0  2  0  0  0  0  0  0
  133.8090  133.5990  150.1080 C   0  0  0  0  0  0  0  0  0  0  0  0
  135.0160  133.7370  149.4050 C   0  0  0  0  0  3  0  0  0  0  0  0
  135.0150  133.8800  148.0170 C   0  0  0  0  0  3  0  0  0  0  0  0
  133.8100  133.8800  147.3180 C   0  0  0  0  0  3  0  0  0  0  0  0
  132.6050  133.7690  148.0100 C   0  0  0  0  0  3  0  0  0  0  0  0
  132.6020  133.6400  149.3990 C   0  0  0  0  0  3  0  0  0  0  0  0
  1  5  1  0  0  0  0
  1  2  1  0  0  0  0
  2  3  2  0  0  0  0
  4  1  1  0  0  0  0
  6 11  1  0  0  0  0
  7  8  1  0  0  0  0
  7  6  2  0  0  0  0
  8  9  2  0  0  0  0
  9  5  1  0  0  0  0
  9 10  1  0  0  0  0
 11 10  2  0  0  0  0
 11 14  1  0  0  0  0
 12 13  1  0  0  0  0
 13  6  1  0  0  0  0
 14 15  1  0  0  0  0
 16 17  1  0  0  0  0
 16  2  1  0  0  0  0
 17 18  1  0  0  0  0
 19 17  1  0  0  0  0
 19 20  2  0  0  0  0
 21 19  2  0  0  0  0
 22 19  1  0  0  0  0
 23 22  1  0  0  0  0
 24 23  1  0  0  0  0
 25 24  2  0  0  0  0
 26 27  2  0  0  0  0
 26 25  1  0  0  0  0
 27 28  1  0  0  0  0
 28 23  2  0  0  0  0
M  END
>  <MODEL>
6

>  <REMARK>
 VINA RESULT:    -6.677      6.457     10.202
 INTER + INTRA:         -11.159
 INTER:                 -10.542
 INTRA:                  -0.616
 UNBOUND:                -0.968
  Name = CHEMBL4974456
  11 active torsions:
  status: ('A' for Active; 'I' for Inactive)
    1  A    between atoms: C_1  and  O_2
    2  A    between atoms: O_2  and  C_3
    3  A    between atoms: C_6  and  C_7
    4  A    between atoms: C_7  and  N_8
    5  A    between atoms: C_9  and  C_11
    6  A    between atoms: C_11  and  N_12
    7  A    between atoms: N_12  and  S_13
    8  A    between atoms: S_13  and  C_16
    9  A    between atoms: C_16  and  C_17
   10  A    between atoms: C_24  and  O_25
   11  A    between atoms: O_25  and  C_26
                            x       y       z     vdW  Elec       q    Type
                         _______ _______ _______ _____ _____    ______ ____

>  <TORSDO>
F 9

>  <SCORE>
-6.677

>  <RMSD_LB>
6.457

>  <RMSD_UB>
10.202

$$$$
CHEMBL4974456
 OpenBabel10172500473D

 28 29  0  0  0  0  0  0  0  0999 V2000
  140.8410  137.8080  152.4750 N   0  0  0  0  0  0  0  0  0  0  0  0
  142.0540  138.3690  152.1140 C   0  0  0  0  0  0  0  0  0  0  0  0
  142.1870  139.4620  151.5760 O   0  0  0  0  0  0  0  0  0  0  0  0
  140.8300  136.9100  152.8780 H   0  0  0  0  0  0  0  0  0  0  0  0
  139.5910  138.5050  152.2760 C   0  0  0  0  0  2  0  0  0  0  0  0
  136.2410  136.1970  153.8040 C   0  0  0  0  0  0  0  0  0  0  0  0
  136.5080  136.2670  152.4300 C   0  0  0  0  0  3  0  0  0  0  0  0
  137.5780  137.0200  151.9340 C   0  0  0  0  0  3  0  0  0  0  0  0
  138.4030  137.7420  152.8000 C   0  0  0  0  0  0  0  0  0  0  0  0
  138.1100  137.7080  154.1710 C   0  0  0  0  0  3  0  0  0  0  0  0
  137.0530  136.9250  154.6870 C   0  0  0  0  0  0  0  0  0  0  0  0
  133.9890  135.5340  153.4980 C   0  0  0  0  0  1  0  0  0  0  0  0
  135.1710  135.4970  154.2970 O   0  0  0  0  0  0  0  0  0  0  0  0
  136.9430  137.0100  156.0500 O   0  0  0  0  0  0  0  0  0  0  0  0
  137.8730  137.8500  156.7260 C   0  0  0  0  0  1  0  0  0  0  0  0
  143.2540  137.5030  152.4770 C   0  0  0  0  0  2  0  0  0  0  0  0
  144.5380  138.0510  151.9940 N   0  0  0  0  0  0  0  0  0  0  0  0
  144.3230  138.7490  151.2820 H   0  0  0  0  0  0  0  0  0  0  0  0
  145.5540  138.7880  153.1390 S   0  0  0  0  0  0  0  0  0  0  0  0
  144.8240  138.7160  154.3850 O   0  0  0  0  0  0  0  0  0  0  0  0
  146.8600  138.1870  153.0040 O   0  0  0  0  0  0  0  0  0  0  0  0
  145.5890  140.4930  152.5620 C   0  0  0  0  0  2  0  0  0  0  0  0
  146.9680  141.0660  152.7400 C   0  0  0  0  0  0  0  0  0  0  0  0
  147.7490  141.4090  151.6260 C   0  0  0  0  0  3  0  0  0  0  0  0
  149.0070  141.9880  151.7930 C   0  0  0  0  0  3  0  0  0  0  0  0
  149.4940  142.2350  153.0740 C   0  0  0  0  0  3  0  0  0  0  0  0
  148.7380  141.8750  154.1880 C   0  0  0  0  0  3  0  0  0  0  0  0
  147.4850  141.2830  154.0230 C   0  0  0  0  0  3  0  0  0  0  0  0
  1  4  1  0  0  0  0
  2  1  1  0  0  0  0
  2 16  1  0  0  0  0
  3  2  2  0  0  0  0
  5  1  1  0  0  0  0
  5  9  1  0  0  0  0
  6 13  1  0  0  0  0
  6 11  1  0  0  0  0
  7  6  2  0  0  0  0
  8  7  1  0  0  0  0
  8  9  2  0  0  0  0
  9 10  1  0  0  0  0
 10 11  2  0  0  0  0
 11 14  1  0  0  0  0
 12 13  1  0  0  0  0
 14 15  1  0  0  0  0
 17 16  1  0  0  0  0
 17 19  1  0  0  0  0
 18 17  1  0  0  0  0
 19 20  2  0  0  0  0
 21 19  2  0  0  0  0
 22 23  1  0  0  0  0
 22 19  1  0  0  0  0
 23 28  1  0  0  0  0
 24 25  1  0  0  0  0
 24 23  2  0  0  0  0
 25 26  2  0  0  0  0
 26 27  1  0  0  0  0
 28 27  2  0  0  0  0
M  END
>  <MODEL>
7

>  <REMARK>
 VINA RESULT:    -6.637      3.844      5.633
 INTER + INTRA:         -11.097
 INTER:                 -10.463
 INTRA:                  -0.634
 UNBOUND:                -0.968
  Name = CHEMBL4974456
  11 active torsions:
  status: ('A' for Active; 'I' for Inactive)
    1  A    between atoms: C_1  and  O_2
    2  A    between atoms: O_2  and  C_3
    3  A    between atoms: C_6  and  C_7
    4  A    between atoms: C_7  and  N_8
    5  A    between atoms: C_9  and  C_11
    6  A    between atoms: C_11  and  N_12
    7  A    between atoms: N_12  and  S_13
    8  A    between atoms: S_13  and  C_16
    9  A    between atoms: C_16  and  C_17
   10  A    between atoms: C_24  and  O_25
   11  A    between atoms: O_25  and  C_26
                            x       y       z     vdW  Elec       q    Type
                         _______ _______ _______ _____ _____    ______ ____

>  <TORSDO>
F 9

>  <SCORE>
-6.637

>  <RMSD_LB>
3.844

>  <RMSD_UB>
5.633

$$$$
CHEMBL4974456
 OpenBabel10172500473D

 28 29  0  0  0  0  0  0  0  0999 V2000
  135.9840  133.3840  146.6310 N   0  0  0  0  0  0  0  0  0  0  0  0
  134.7550  133.5930  147.2340 C   0  0  0  0  0  0  0  0  0  0  0  0
  133.7570  132.9080  147.0460 O   0  0  0  0  0  0  0  0  0  0  0  0
  136.7230  134.0040  146.8220 H   0  0  0  0  0  0  0  0  0  0  0  0
  136.2090  132.2780  145.7280 C   0  0  0  0  0  2  0  0  0  0  0  0
  138.0850  133.5160  142.0090 C   0  0  0  0  0  0  0  0  0  0  0  0
  137.5570  132.2280  142.1620 C   0  0  0  0  0  3  0  0  0  0  0  0
  136.9640  131.8210  143.3630 C   0  0  0  0  0  3  0  0  0  0  0  0
  136.9000  132.6900  144.4550 C   0  0  0  0  0  0  0  0  0  0  0  0
  137.4670  133.9650  144.3170 C   0  0  0  0  0  3  0  0  0  0  0  0
  138.0390  134.3980  143.0990 C   0  0  0  0  0  0  0  0  0  0  0  0
  138.8470  132.9000  139.8540 C   0  0  0  0  0  1  0  0  0  0  0  0
  138.7060  133.9100  140.8520 O   0  0  0  0  0  0  0  0  0  0  0  0
  138.5200  135.6800  143.1620 O   0  0  0  0  0  0  0  0  0  0  0  0
  137.6310  136.6850  143.6390 C   0  0  0  0  0  1  0  0  0  0  0  0
  134.7510  134.7670  148.2060 C   0  0  0  0  0  2  0  0  0  0  0  0
  133.4110  135.0660  148.7550 N   0  0  0  0  0  0  0  0  0  0  0  0
  132.7320  134.5410  148.2040 H   0  0  0  0  0  0  0  0  0  0  0  0
  133.1360  134.6950  150.3900 S   0  0  0  0  0  0  0  0  0  0  0  0
  132.8970  135.9710  151.0260 O   0  0  0  0  0  0  0  0  0  0  0  0
  132.1470  133.6440  150.4310 O   0  0  0  0  0  0  0  0  0  0  0  0
  134.7420  134.0600  150.9020 C   0  0  0  0  0  2  0  0  0  0  0  0
  135.0550  134.5250  152.2970 C   0  0  0  0  0  0  0  0  0  0  0  0
  135.9760  135.5620  152.5160 C   0  0  0  0  0  3  0  0  0  0  0  0
  136.2270  136.0260  153.8070 C   0  0  0  0  0  3  0  0  0  0  0  0
  135.5560  135.4650  154.8910 C   0  0  0  0  0  3  0  0  0  0  0  0
  134.6580  134.4190  154.6880 C   0  0  0  0  0  3  0  0  0  0  0  0
  134.4150  133.9430  153.3990 C   0  0  0  0  0  3  0  0  0  0  0  0
  1  4  1  0  0  0  0
  1  2  1  0  0  0  0
  2 16  1  0  0  0  0
  3  2  2  0  0  0  0
  5  1  1  0  0  0  0
  6  7  2  0  0  0  0
  6 11  1  0  0  0  0
  7  8  1  0  0  0  0
  8  9  2  0  0  0  0
  9  5  1  0  0  0  0
 10  9  1  0  0  0  0
 11 14  1  0  0  0  0
 11 10  2  0  0  0  0
 12 13  1  0  0  0  0
 13  6  1  0  0  0  0
 14 15  1  0  0  0  0
 16 17  1  0  0  0  0
 17 19  1  0  0  0  0
 18 17  1  0  0  0  0
 19 21  2  0  0  0  0
 19 22  1  0  0  0  0
 19 20  2  0  0  0  0
 22 23  1  0  0  0  0
 23 24  2  0  0  0  0
 23 28  1  0  0  0  0
 24 25  1  0  0  0  0
 25 26  2  0  0  0  0
 27 26  1  0  0  0  0
 28 27  2  0  0  0  0
M  END
>  <MODEL>
8

>  <REMARK>
 VINA RESULT:    -6.578     10.601     12.369
 INTER + INTRA:         -11.007
 INTER:                 -10.303
 INTRA:                  -0.704
 UNBOUND:                -0.968
  Name = CHEMBL4974456
  11 active torsions:
  status: ('A' for Active; 'I' for Inactive)
    1  A    between atoms: C_1  and  O_2
    2  A    between atoms: O_2  and  C_3
    3  A    between atoms: C_6  and  C_7
    4  A    between atoms: C_7  and  N_8
    5  A    between atoms: C_9  and  C_11
    6  A    between atoms: C_11  and  N_12
    7  A    between atoms: N_12  and  S_13
    8  A    between atoms: S_13  and  C_16
    9  A    between atoms: C_16  and  C_17
   10  A    between atoms: C_24  and  O_25
   11  A    between atoms: O_25  and  C_26
                            x       y       z     vdW  Elec       q    Type
                         _______ _______ _______ _____ _____    ______ ____

>  <TORSDO>
F 9

>  <SCORE>
-6.578

>  <RMSD_LB>
10.601

>  <RMSD_UB>
12.369

$$$$
CHEMBL4974456
 OpenBabel10172500473D

 28 29  0  0  0  0  0  0  0  0999 V2000
  139.5450  137.7390  150.0670 N   0  0  0  0  0  0  0  0  0  0  0  0
  139.2400  138.9260  149.4240 C   0  0  0  0  0  0  0  0  0  0  0  0
  139.7250  140.0170  149.7010 O   0  0  0  0  0  0  0  0  0  0  0  0
  139.0830  136.9130  149.7930 H   0  0  0  0  0  0  0  0  0  0  0  0
  140.5210  137.6780  151.1300 C   0  0  0  0  0  2  0  0  0  0  0  0
  138.8240  138.2660  155.0870 C   0  0  0  0  0  0  0  0  0  0  0  0
  138.0150  137.9410  153.9900 C   0  0  0  0  0  3  0  0  0  0  0  0
  138.5560  137.7640  152.7120 C   0  0  0  0  0  3  0  0  0  0  0  0
  139.9260  137.9270  152.4910 C   0  0  0  0  0  0  0  0  0  0  0  0
  140.7300  138.2950  153.5790 C   0  0  0  0  0  3  0  0  0  0  0  0
  140.2000  138.4440  154.8800 C   0  0  0  0  0  0  0  0  0  0  0  0
  138.1870  137.3300  157.1660 C   0  0  0  0  0  1  0  0  0  0  0  0
  138.2980  138.4830  156.3340 O   0  0  0  0  0  0  0  0  0  0  0  0
  141.1500  138.7860  155.8070 O   0  0  0  0  0  0  0  0  0  0  0  0
  142.3090  139.4620  155.3300 C   0  0  0  0  0  1  0  0  0  0  0  0
  138.2420  138.7590  148.2840 C   0  0  0  0  0  2  0  0  0  0  0  0
  136.8680  138.4780  148.7480 N   0  0  0  0  0  0  0  0  0  0  0  0
  136.2300  139.0050  148.1510 H   0  0  0  0  0  0  0  0  0  0  0  0
  136.3540  136.8580  148.7360 S   0  0  0  0  0  0  0  0  0  0  0  0
  136.9230  136.2970  147.5310 O   0  0  0  0  0  0  0  0  0  0  0  0
  136.6590  136.3020  150.0330 O   0  0  0  0  0  0  0  0  0  0  0  0
  134.5740  137.0340  148.5350 C   0  0  0  0  0  2  0  0  0  0  0  0
  133.8690  135.8640  149.1640 C   0  0  0  0  0  0  0  0  0  0  0  0
  133.3690  135.9490  150.4720 C   0  0  0  0  0  3  0  0  0  0  0  0
  132.6710  134.8810  151.0350 C   0  0  0  0  0  3  0  0  0  0  0  0
  132.4600  133.7200  150.2950 C   0  0  0  0  0  3  0  0  0  0  0  0
  132.9750  133.6150  149.0040 C   0  0  0  0  0  3  0  0  0  0  0  0
  133.6860  134.6770  148.4430 C   0  0  0  0  0  3  0  0  0  0  0  0
  1  5  1  0  0  0  0
  2  3  2  0  0  0  0
  2  1  1  0  0  0  0
  4  1  1  0  0  0  0
  5  9  1  0  0  0  0
  6 13  1  0  0  0  0
  7  6  2  0  0  0  0
  8  7  1  0  0  0  0
  9  8  2  0  0  0  0
  9 10  1  0  0  0  0
 10 11  2  0  0  0  0
 11  6  1  0  0  0  0
 11 14  1  0  0  0  0
 13 12  1  0  0  0  0
 15 14  1  0  0  0  0
 16 17  1  0  0  0  0
 16  2  1  0  0  0  0
 18 17  1  0  0  0  0
 19 17  1  0  0  0  0
 19 21  2  0  0  0  0
 20 19  2  0  0  0  0
 22 19  1  0  0  0  0
 22 23  1  0  0  0  0
 23 24  1  0  0  0  0
 24 25  2  0  0  0  0
 26 25  1  0  0  0  0
 27 26  2  0  0  0  0
 28 27  1  0  0  0  0
 28 23  2  0  0  0  0
M  END
>  <MODEL>
9

>  <REMARK>
 VINA RESULT:    -6.550      6.245     10.646
 INTER + INTRA:         -10.964
 INTER:                  -9.996
 INTRA:                  -0.968
 UNBOUND:                -0.968
  Name = CHEMBL4974456
  11 active torsions:
  status: ('A' for Active; 'I' for Inactive)
    1  A    between atoms: C_1  and  O_2
    2  A    between atoms: O_2  and  C_3
    3  A    between atoms: C_6  and  C_7
    4  A    between atoms: C_7  and  N_8
    5  A    between atoms: C_9  and  C_11
    6  A    between atoms: C_11  and  N_12
    7  A    between atoms: N_12  and  S_13
    8  A    between atoms: S_13  and  C_16
    9  A    between atoms: C_16  and  C_17
   10  A    between atoms: C_24  and  O_25
   11  A    between atoms: O_25  and  C_26
                            x       y       z     vdW  Elec       q    Type
                         _______ _______ _______ _____ _____    ______ ____

>  <TORSDO>
F 9

>  <SCORE>
-6.550

>  <RMSD_LB>
6.245

>  <RMSD_UB>
10.646

$$$$
