CHEMBL86443
 OpenBabel10162523593D

 22 22  0  0  0  0  0  0  0  0999 V2000
  145.8240  140.5410  148.8570 C   0  0  0  0  0  0  0  0  0  0  0  0
  146.9020  140.0410  148.5490 O   0  0  0  0  0  0  0  0  0  0  0  0
  145.7030  141.7400  149.5170 N   0  0  0  0  0  0  0  0  0  0  0  0
  144.8060  142.0600  149.7630 H   0  0  0  0  0  0  0  0  0  0  0  0
  144.5100  139.8520  148.5450 C   0  0  0  0  0  2  0  0  0  0  0  0
  144.0290  138.9190  149.6560 C   0  0  0  0  0  2  0  0  0  0  0  0
  142.9280  139.5490  150.5110 C   0  0  0  0  0  2  0  0  0  0  0  0
  143.3070  139.5410  151.9910 C   0  0  0  0  0  2  0  0  0  0  0  0
  142.6590  138.3610  152.7140 C   0  0  0  0  0  2  0  0  0  0  0  0
  140.2390  137.7840  152.3350 C   0  0  0  0  0  1  0  0  0  0  0  0
  141.6590  137.6400  151.8110 C   0  0  0  0  0  2  0  0  0  0  0  0
  146.8500  142.5470  149.8610 C   0  0  0  0  0  2  0  0  0  0  0  0
  147.3830  142.1770  151.2220 C   0  0  0  0  0  0  0  0  0  0  0  0
  148.7520  142.2770  151.4930 C   0  0  0  0  0  3  0  0  0  0  0  0
  149.2490  141.9330  152.7510 C   0  0  0  0  0  3  0  0  0  0  0  0
  148.3830  141.4960  153.7590 C   0  0  0  0  0  0  0  0  0  0  0  0
  147.0080  141.3980  153.5160 C   0  0  0  0  0  0  0  0  0  0  0  0
  146.5240  141.7460  152.2440 C   0  0  0  0  0  3  0  0  0  0  0  0
  148.9220  141.1770  154.9750 O   0  0  0  0  0  0  0  0  0  0  0  0
  149.1990  141.8550  155.5580 H   0  0  0  0  0  0  0  0  0  0  0  0
  146.0200  140.9930  154.3720 O   0  0  0  0  0  0  0  0  0  0  0  0
  145.8520  139.5990  154.5900 C   0  0  0  0  0  1  0  0  0  0  0  0
  1  3  1  0  0  0  0
  2  1  2  0  0  0  0
  3  4  1  0  0  0  0
  3 12  1  0  0  0  0
  5  1  1  0  0  0  0
  5  6  1  0  0  0  0
  6  7  1  0  0  0  0
  7  8  1  0  0  0  0
  8  9  1  0  0  0  0
 11 10  1  0  0  0  0
 11  9  1  0  0  0  0
 12 13  1  0  0  0  0
 13 14  2  0  0  0  0
 13 18  1  0  0  0  0
 14 15  1  0  0  0  0
 15 16  2  0  0  0  0
 16 19  1  0  0  0  0
 17 16  1  0  0  0  0
 17 21  1  0  0  0  0
 18 17  2  0  0  0  0
 19 20  1  0  0  0  0
 21 22  1  0  0  0  0
M  END
>  <MODEL>
1

>  <REMARK>
 VINA RESULT:    -5.354      0.000      0.000
 INTER + INTRA:          -9.893
 INTER:                  -8.989
 INTRA:                  -0.904
 UNBOUND:                -1.565
  Name = CHEMBL86443
  12 active torsions:
  status: ('A' for Active; 'I' for Inactive)
    1  A    between atoms: C_1  and  C_2
    2  A    between atoms: C_2  and  C_3
    3  A    between atoms: C_3  and  C_4
    4  A    between atoms: C_4  and  C_5
    5  A    between atoms: C_5  and  C_6
    6  A    between atoms: C_6  and  C_7
    7  A    between atoms: C_7  and  C_8
    8  A    between atoms: N_10  and  C_11
    9  A    between atoms: C_11  and  C_12
   10  A    between atoms: C_15  and  O_16
   11  A    between atoms: C_17  and  O_18
   12  A    between atoms: O_18  and  C_19
                            x       y       z     vdW  Elec       q    Type
                         _______ _______ _______ _____ _____    ______ ____

>  <TORSDO>
F 10

>  <SCORE>
-5.354

>  <RMSD_LB>
0.000

>  <RMSD_UB>
0.000

$$$$
CHEMBL86443
 OpenBabel10162523593D

 22 22  0  0  0  0  0  0  0  0999 V2000
  134.4530  134.5960  152.4600 C   0  0  0  0  0  0  0  0  0  0  0  0
  133.2800  134.9580  152.4740 O   0  0  0  0  0  0  0  0  0  0  0  0
  135.1970  134.3820  153.5950 N   0  0  0  0  0  0  0  0  0  0  0  0
  136.1430  134.1280  153.5030 H   0  0  0  0  0  0  0  0  0  0  0  0
  135.1980  134.3670  151.1590 C   0  0  0  0  0  2  0  0  0  0  0  0
  134.4060  133.5540  150.1360 C   0  0  0  0  0  2  0  0  0  0  0  0
  134.2680  134.2790  148.7950 C   0  0  0  0  0  2  0  0  0  0  0  0
  132.8790  134.8970  148.6440 C   0  0  0  0  0  2  0  0  0  0  0  0
  132.9580  136.4230  148.6470 C   0  0  0  0  0  2  0  0  0  0  0  0
  133.4130  136.8960  146.2180 C   0  0  0  0  0  1  0  0  0  0  0  0
  132.4040  137.0090  147.3490 C   0  0  0  0  0  2  0  0  0  0  0  0
  134.6360  134.5200  154.9190 C   0  0  0  0  0  2  0  0  0  0  0  0
  135.4330  135.4960  155.7450 C   0  0  0  0  0  0  0  0  0  0  0  0
  135.6740  135.2410  157.0990 C   0  0  0  0  0  3  0  0  0  0  0  0
  136.4110  136.1440  157.8680 C   0  0  0  0  0  3  0  0  0  0  0  0
  136.9270  137.3090  157.2900 C   0  0  0  0  0  0  0  0  0  0  0  0
  136.7090  137.5810  155.9340 C   0  0  0  0  0  0  0  0  0  0  0  0
  135.9640  136.6640  155.1750 C   0  0  0  0  0  3  0  0  0  0  0  0
  137.6450  138.1570  158.0860 O   0  0  0  0  0  0  0  0  0  0  0  0
  137.7920  139.0420  157.8160 H   0  0  0  0  0  0  0  0  0  0  0  0
  137.1320  138.6600  155.2050 O   0  0  0  0  0  0  0  0  0  0  0  0
  138.4230  138.6030  154.6130 C   0  0  0  0  0  1  0  0  0  0  0  0
  1  2  2  0  0  0  0
  1  3  1  0  0  0  0
  3 12  1  0  0  0  0
  4  3  1  0  0  0  0
  5  1  1  0  0  0  0
  6  5  1  0  0  0  0
  7  6  1  0  0  0  0
  8  9  1  0  0  0  0
  8  7  1  0  0  0  0
 10 11  1  0  0  0  0
 11  9  1  0  0  0  0
 12 13  1  0  0  0  0
 13 14  1  0  0  0  0
 14 15  2  0  0  0  0
 16 15  1  0  0  0  0
 16 19  1  0  0  0  0
 17 16  2  0  0  0  0
 18 13  2  0  0  0  0
 18 17  1  0  0  0  0
 20 19  1  0  0  0  0
 21 17  1  0  0  0  0
 22 21  1  0  0  0  0
M  END
>  <MODEL>
2

>  <REMARK>
 VINA RESULT:    -5.336      9.219     12.304
 INTER + INTRA:          -9.865
 INTER:                  -9.206
 INTRA:                  -0.659
 UNBOUND:                -1.565
  Name = CHEMBL86443
  12 active torsions:
  status: ('A' for Active; 'I' for Inactive)
    1  A    between atoms: C_1  and  C_2
    2  A    between atoms: C_2  and  C_3
    3  A    between atoms: C_3  and  C_4
    4  A    between atoms: C_4  and  C_5
    5  A    between atoms: C_5  and  C_6
    6  A    between atoms: C_6  and  C_7
    7  A    between atoms: C_7  and  C_8
    8  A    between atoms: N_10  and  C_11
    9  A    between atoms: C_11  and  C_12
   10  A    between atoms: C_15  and  O_16
   11  A    between atoms: C_17  and  O_18
   12  A    between atoms: O_18  and  C_19
                            x       y       z     vdW  Elec       q    Type
                         _______ _______ _______ _____ _____    ______ ____

>  <TORSDO>
F 10

>  <SCORE>
-5.336

>  <RMSD_LB>
9.219

>  <RMSD_UB>
12.304

$$$$
CHEMBL86443
 OpenBabel10162523593D

 22 22  0  0  0  0  0  0  0  0999 V2000
  135.7770  135.5380  153.4620 C   0  0  0  0  0  0  0  0  0  0  0  0
  136.2120  136.6630  153.2340 O   0  0  0  0  0  0  0  0  0  0  0  0
  135.6530  134.5620  152.5020 N   0  0  0  0  0  0  0  0  0  0  0  0
  135.2600  133.6960  152.7530 H   0  0  0  0  0  0  0  0  0  0  0  0
  135.3130  135.1300  154.8460 C   0  0  0  0  0  2  0  0  0  0  0  0
  135.9020  135.9880  155.9660 C   0  0  0  0  0  2  0  0  0  0  0  0
  137.3600  135.6310  156.2680 C   0  0  0  0  0  2  0  0  0  0  0  0
  138.1570  136.8690  156.6760 C   0  0  0  0  0  2  0  0  0  0  0  0
  137.2570  137.8970  157.3600 C   0  0  0  0  0  2  0  0  0  0  0  0
  136.4380  137.1170  159.6070 C   0  0  0  0  0  1  0  0  0  0  0  0
  137.4940  137.9230  158.8690 C   0  0  0  0  0  2  0  0  0  0  0  0
  136.0780  134.7670  151.1370 C   0  0  0  0  0  2  0  0  0  0  0  0
  134.9460  134.5170  150.1750 C   0  0  0  0  0  0  0  0  0  0  0  0
  134.5930  133.2090  149.8270 C   0  0  0  0  0  3  0  0  0  0  0  0
  133.5460  132.9730  148.9350 C   0  0  0  0  0  3  0  0  0  0  0  0
  132.8290  134.0430  148.3860 C   0  0  0  0  0  0  0  0  0  0  0  0
  133.1560  135.3600  148.7270 C   0  0  0  0  0  0  0  0  0  0  0  0
  134.2140  135.5810  149.6250 C   0  0  0  0  0  3  0  0  0  0  0  0
  131.8100  133.7570  147.5210 O   0  0  0  0  0  0  0  0  0  0  0  0
  131.1980  133.0780  147.7250 H   0  0  0  0  0  0  0  0  0  0  0  0
  132.5720  136.5210  148.2930 O   0  0  0  0  0  0  0  0  0  0  0  0
  132.9500  137.0240  147.0200 C   0  0  0  0  0  1  0  0  0  0  0  0
  1  5  1  0  0  0  0
  2  1  2  0  0  0  0
  3  4  1  0  0  0  0
  3  1  1  0  0  0  0
  5  6  1  0  0  0  0
  6  7  1  0  0  0  0
  7  8  1  0  0  0  0
  8  9  1  0  0  0  0
  9 11  1  0  0  0  0
 11 10  1  0  0  0  0
 12  3  1  0  0  0  0
 13 12  1  0  0  0  0
 14 13  1  0  0  0  0
 15 14  2  0  0  0  0
 16 17  2  0  0  0  0
 16 15  1  0  0  0  0
 17 18  1  0  0  0  0
 18 13  2  0  0  0  0
 19 20  1  0  0  0  0
 19 16  1  0  0  0  0
 21 17  1  0  0  0  0
 22 21  1  0  0  0  0
M  END
>  <MODEL>
3

>  <REMARK>
 VINA RESULT:    -5.262     10.511     13.608
 INTER + INTRA:          -9.750
 INTER:                  -9.096
 INTRA:                  -0.654
 UNBOUND:                -1.565
  Name = CHEMBL86443
  12 active torsions:
  status: ('A' for Active; 'I' for Inactive)
    1  A    between atoms: C_1  and  C_2
    2  A    between atoms: C_2  and  C_3
    3  A    between atoms: C_3  and  C_4
    4  A    between atoms: C_4  and  C_5
    5  A    between atoms: C_5  and  C_6
    6  A    between atoms: C_6  and  C_7
    7  A    between atoms: C_7  and  C_8
    8  A    between atoms: N_10  and  C_11
    9  A    between atoms: C_11  and  C_12
   10  A    between atoms: C_15  and  O_16
   11  A    between atoms: C_17  and  O_18
   12  A    between atoms: O_18  and  C_19
                            x       y       z     vdW  Elec       q    Type
                         _______ _______ _______ _____ _____    ______ ____

>  <TORSDO>
F 10

>  <SCORE>
-5.262

>  <RMSD_LB>
10.511

>  <RMSD_UB>
13.608

$$$$
CHEMBL86443
 OpenBabel10162523593D

 22 22  0  0  0  0  0  0  0  0999 V2000
  146.1710  140.4970  154.2930 C   0  0  0  0  0  0  0  0  0  0  0  0
  146.9480  139.6800  154.7770 O   0  0  0  0  0  0  0  0  0  0  0  0
  144.8470  140.2290  154.0400 N   0  0  0  0  0  0  0  0  0  0  0  0
  144.2940  140.9240  153.6160 H   0  0  0  0  0  0  0  0  0  0  0  0
  146.6210  141.8930  153.9110 C   0  0  0  0  0  2  0  0  0  0  0  0
  147.8300  141.9110  152.9760 C   0  0  0  0  0  2  0  0  0  0  0  0
  147.5160  141.3100  151.6040 C   0  0  0  0  0  2  0  0  0  0  0  0
  147.3200  142.4040  150.5550 C   0  0  0  0  0  2  0  0  0  0  0  0
  145.8780  142.4240  150.0510 C   0  0  0  0  0  2  0  0  0  0  0  0
  144.4320  140.3990  149.6740 C   0  0  0  0  0  1  0  0  0  0  0  0
  145.0450  141.3260  150.7110 C   0  0  0  0  0  2  0  0  0  0  0  0
  144.2410  138.9620  154.3740 C   0  0  0  0  0  2  0  0  0  0  0  0
  143.7290  138.2650  153.1400 C   0  0  0  0  0  0  0  0  0  0  0  0
  142.3810  138.3660  152.7820 C   0  0  0  0  0  3  0  0  0  0  0  0
  141.9030  137.7210  151.6400 C   0  0  0  0  0  3  0  0  0  0  0  0
  142.7690  136.9750  150.8340 C   0  0  0  0  0  0  0  0  0  0  0  0
  144.1250  136.8680  151.1650 C   0  0  0  0  0  0  0  0  0  0  0  0
  144.5900  137.5210  152.3180 C   0  0  0  0  0  3  0  0  0  0  0  0
  142.2510  136.3670  149.7240 O   0  0  0  0  0  0  0  0  0  0  0  0
  142.7460  135.7120  149.2740 H   0  0  0  0  0  0  0  0  0  0  0  0
  145.1110  136.1880  150.5010 O   0  0  0  0  0  0  0  0  0  0  0  0
  145.7550  136.8350  149.4130 C   0  0  0  0  0  1  0  0  0  0  0  0
  1  2  2  0  0  0  0
  3  1  1  0  0  0  0
  3 12  1  0  0  0  0
  4  3  1  0  0  0  0
  5  1  1  0  0  0  0
  6  5  1  0  0  0  0
  7  6  1  0  0  0  0
  8  7  1  0  0  0  0
  9  8  1  0  0  0  0
  9 11  1  0  0  0  0
 10 11  1  0  0  0  0
 13 12  1  0  0  0  0
 14 13  1  0  0  0  0
 15 14  2  0  0  0  0
 16 17  2  0  0  0  0
 16 15  1  0  0  0  0
 17 18  1  0  0  0  0
 18 13  2  0  0  0  0
 19 16  1  0  0  0  0
 20 19  1  0  0  0  0
 21 17  1  0  0  0  0
 22 21  1  0  0  0  0
M  END
>  <MODEL>
4

>  <REMARK>
 VINA RESULT:    -5.257      2.465      6.306
 INTER + INTRA:          -9.742
 INTER:                  -8.333
 INTRA:                  -1.409
 UNBOUND:                -1.565
  Name = CHEMBL86443
  12 active torsions:
  status: ('A' for Active; 'I' for Inactive)
    1  A    between atoms: C_1  and  C_2
    2  A    between atoms: C_2  and  C_3
    3  A    between atoms: C_3  and  C_4
    4  A    between atoms: C_4  and  C_5
    5  A    between atoms: C_5  and  C_6
    6  A    between atoms: C_6  and  C_7
    7  A    between atoms: C_7  and  C_8
    8  A    between atoms: N_10  and  C_11
    9  A    between atoms: C_11  and  C_12
   10  A    between atoms: C_15  and  O_16
   11  A    between atoms: C_17  and  O_18
   12  A    between atoms: O_18  and  C_19
                            x       y       z     vdW  Elec       q    Type
                         _______ _______ _______ _____ _____    ______ ____

>  <TORSDO>
F 10

>  <SCORE>
-5.257

>  <RMSD_LB>
2.465

>  <RMSD_UB>
6.306

$$$$
CHEMBL86443
 OpenBabel10162523593D

 22 22  0  0  0  0  0  0  0  0999 V2000
  144.1530  139.3830  149.7930 C   0  0  0  0  0  0  0  0  0  0  0  0
  143.6060  139.0430  148.7480 O   0  0  0  0  0  0  0  0  0  0  0  0
  144.0910  138.6540  150.9560 N   0  0  0  0  0  0  0  0  0  0  0  0
  144.5250  139.0100  151.7640 H   0  0  0  0  0  0  0  0  0  0  0  0
  144.9440  140.6730  149.8930 C   0  0  0  0  0  2  0  0  0  0  0  0
  145.1080  141.1800  151.3250 C   0  0  0  0  0  2  0  0  0  0  0  0
  145.9240  142.4730  151.3970 C   0  0  0  0  0  2  0  0  0  0  0  0
  147.2760  142.3110  150.7040 C   0  0  0  0  0  2  0  0  0  0  0  0
  148.1670  141.3330  151.4690 C   0  0  0  0  0  2  0  0  0  0  0  0
  148.6730  141.7440  153.8990 C   0  0  0  0  0  1  0  0  0  0  0  0
  149.0640  142.0650  152.4660 C   0  0  0  0  0  2  0  0  0  0  0  0
  143.4090  137.3830  151.0310 C   0  0  0  0  0  2  0  0  0  0  0  0
  141.9920  137.5580  151.5120 C   0  0  0  0  0  0  0  0  0  0  0  0
  140.9200  137.1730  150.7000 C   0  0  0  0  0  3  0  0  0  0  0  0
  139.6060  137.3350  151.1410 C   0  0  0  0  0  3  0  0  0  0  0  0
  139.3450  137.8720  152.4070 C   0  0  0  0  0  0  0  0  0  0  0  0
  140.4010  138.2530  153.2430 C   0  0  0  0  0  0  0  0  0  0  0  0
  141.7180  138.0860  152.7830 C   0  0  0  0  0  3  0  0  0  0  0  0
  138.0400  138.0040  152.7920 O   0  0  0  0  0  0  0  0  0  0  0  0
  137.7790  137.7570  153.6570 H   0  0  0  0  0  0  0  0  0  0  0  0
  140.3380  138.7920  154.5000 O   0  0  0  0  0  0  0  0  0  0  0  0
  141.4680  138.6450  155.3480 C   0  0  0  0  0  1  0  0  0  0  0  0
  1  5  1  0  0  0  0
  1  3  1  0  0  0  0
  2  1  2  0  0  0  0
  3 12  1  0  0  0  0
  3  4  1  0  0  0  0
  5  6  1  0  0  0  0
  6  7  1  0  0  0  0
  8  7  1  0  0  0  0
  8  9  1  0  0  0  0
  9 11  1  0  0  0  0
 11 10  1  0  0  0  0
 12 13  1  0  0  0  0
 13 18  1  0  0  0  0
 14 15  1  0  0  0  0
 14 13  2  0  0  0  0
 15 16  2  0  0  0  0
 16 19  1  0  0  0  0
 16 17  1  0  0  0  0
 17 21  1  0  0  0  0
 18 17  2  0  0  0  0
 19 20  1  0  0  0  0
 21 22  1  0  0  0  0
M  END
>  <MODEL>
5

>  <REMARK>
 VINA RESULT:    -5.237      2.902      6.944
 INTER + INTRA:          -9.712
 INTER:                  -8.935
 INTRA:                  -0.777
 UNBOUND:                -1.565
  Name = CHEMBL86443
  12 active torsions:
  status: ('A' for Active; 'I' for Inactive)
    1  A    between atoms: C_1  and  C_2
    2  A    between atoms: C_2  and  C_3
    3  A    between atoms: C_3  and  C_4
    4  A    between atoms: C_4  and  C_5
    5  A    between atoms: C_5  and  C_6
    6  A    between atoms: C_6  and  C_7
    7  A    between atoms: C_7  and  C_8
    8  A    between atoms: N_10  and  C_11
    9  A    between atoms: C_11  and  C_12
   10  A    between atoms: C_15  and  O_16
   11  A    between atoms: C_17  and  O_18
   12  A    between atoms: O_18  and  C_19
                            x       y       z     vdW  Elec       q    Type
                         _______ _______ _______ _____ _____    ______ ____

>  <TORSDO>
F 10

>  <SCORE>
-5.237

>  <RMSD_LB>
2.902

>  <RMSD_UB>
6.944

$$$$
CHEMBL86443
 OpenBabel10162523593D

 22 22  0  0  0  0  0  0  0  0999 V2000
  144.3600  137.1390  150.9760 C   0  0  0  0  0  0  0  0  0  0  0  0
  144.4410  136.0590  150.4000 O   0  0  0  0  0  0  0  0  0  0  0  0
  143.1680  137.7320  151.3170 N   0  0  0  0  0  0  0  0  0  0  0  0
  143.1820  138.6180  151.7450 H   0  0  0  0  0  0  0  0  0  0  0  0
  145.5950  137.9350  151.3510 C   0  0  0  0  0  2  0  0  0  0  0  0
  145.2810  139.2650  152.0350 C   0  0  0  0  0  2  0  0  0  0  0  0
  146.2110  139.5470  153.2180 C   0  0  0  0  0  2  0  0  0  0  0  0
  145.8930  140.8960  153.8600 C   0  0  0  0  0  2  0  0  0  0  0  0
  146.4450  142.0450  153.0170 C   0  0  0  0  0  2  0  0  0  0  0  0
  148.2290  142.0860  151.2440 C   0  0  0  0  0  1  0  0  0  0  0  0
  147.9290  141.8470  152.7140 C   0  0  0  0  0  2  0  0  0  0  0  0
  141.8950  137.0980  151.0670 C   0  0  0  0  0  2  0  0  0  0  0  0
  140.8360  137.6210  152.0030 C   0  0  0  0  0  0  0  0  0  0  0  0
  139.4810  137.4630  151.6940 C   0  0  0  0  0  3  0  0  0  0  0  0
  138.4980  137.9480  152.5580 C   0  0  0  0  0  3  0  0  0  0  0  0
  138.8570  138.5860  153.7510 C   0  0  0  0  0  0  0  0  0  0  0  0
  140.2050  138.7460  154.0880 C   0  0  0  0  0  0  0  0  0  0  0  0
  141.1830  138.2560  153.2060 C   0  0  0  0  0  3  0  0  0  0  0  0
  137.8550  139.0380  154.5640 O   0  0  0  0  0  0  0  0  0  0  0  0
  137.2790  139.7150  154.2670 H   0  0  0  0  0  0  0  0  0  0  0  0
  140.7390  139.3400  155.2010 O   0  0  0  0  0  0  0  0  0  0  0  0
  142.1520  139.4620  155.2820 C   0  0  0  0  0  1  0  0  0  0  0  0
  1  3  1  0  0  0  0
  1  5  1  0  0  0  0
  2  1  2  0  0  0  0
  3  4  1  0  0  0  0
  5  6  1  0  0  0  0
  6  7  1  0  0  0  0
  7  8  1  0  0  0  0
  9  8  1  0  0  0  0
 10 11  1  0  0  0  0
 11  9  1  0  0  0  0
 12  3  1  0  0  0  0
 12 13  1  0  0  0  0
 13 18  1  0  0  0  0
 14 13  2  0  0  0  0
 14 15  1  0  0  0  0
 15 16  2  0  0  0  0
 16 17  1  0  0  0  0
 16 19  1  0  0  0  0
 17 21  1  0  0  0  0
 18 17  2  0  0  0  0
 20 19  1  0  0  0  0
 21 22  1  0  0  0  0
M  END
>  <MODEL>
6

>  <REMARK>
 VINA RESULT:    -5.234      3.212      7.130
 INTER + INTRA:          -9.707
 INTER:                  -8.865
 INTRA:                  -0.842
 UNBOUND:                -1.565
  Name = CHEMBL86443
  12 active torsions:
  status: ('A' for Active; 'I' for Inactive)
    1  A    between atoms: C_1  and  C_2
    2  A    between atoms: C_2  and  C_3
    3  A    between atoms: C_3  and  C_4
    4  A    between atoms: C_4  and  C_5
    5  A    between atoms: C_5  and  C_6
    6  A    between atoms: C_6  and  C_7
    7  A    between atoms: C_7  and  C_8
    8  A    between atoms: N_10  and  C_11
    9  A    between atoms: C_11  and  C_12
   10  A    between atoms: C_15  and  O_16
   11  A    between atoms: C_17  and  O_18
   12  A    between atoms: O_18  and  C_19
                            x       y       z     vdW  Elec       q    Type
                         _______ _______ _______ _____ _____    ______ ____

>  <TORSDO>
F 10

>  <SCORE>
-5.234

>  <RMSD_LB>
3.212

>  <RMSD_UB>
7.130

$$$$
CHEMBL86443
 OpenBabel10162523593D

 22 22  0  0  0  0  0  0  0  0999 V2000
  138.8230  138.5180  150.6690 C   0  0  0  0  0  0  0  0  0  0  0  0
  138.5480  139.1040  149.6270 O   0  0  0  0  0  0  0  0  0  0  0  0
  138.1160  137.4400  151.1450 N   0  0  0  0  0  0  0  0  0  0  0  0
  138.3740  137.0450  152.0090 H   0  0  0  0  0  0  0  0  0  0  0  0
  139.9800  138.9560  151.5460 C   0  0  0  0  0  2  0  0  0  0  0  0
  140.5760  137.8240  152.3830 C   0  0  0  0  0  2  0  0  0  0  0  0
  140.4820  138.0970  153.8850 C   0  0  0  0  0  2  0  0  0  0  0  0
  139.3070  139.0200  154.2060 C   0  0  0  0  0  2  0  0  0  0  0  0
  138.2100  138.2650  154.9560 C   0  0  0  0  0  2  0  0  0  0  0  0
  137.7220  136.3540  156.5180 C   0  0  0  0  0  1  0  0  0  0  0  0
  138.8040  137.2340  155.9140 C   0  0  0  0  0  2  0  0  0  0  0  0
  137.0050  136.8690  150.4210 C   0  0  0  0  0  2  0  0  0  0  0  0
  135.9860  136.2850  151.3660 C   0  0  0  0  0  0  0  0  0  0  0  0
  136.3000  136.1060  152.7180 C   0  0  0  0  0  3  0  0  0  0  0  0
  135.3610  135.5640  153.5950 C   0  0  0  0  0  3  0  0  0  0  0  0
  134.0890  135.2040  153.1360 C   0  0  0  0  0  0  0  0  0  0  0  0
  133.7470  135.3830  151.7910 C   0  0  0  0  0  0  0  0  0  0  0  0
  134.7050  135.9280  150.9200 C   0  0  0  0  0  3  0  0  0  0  0  0
  133.2040  134.6820  154.0390 O   0  0  0  0  0  0  0  0  0  0  0  0
  132.8510  133.8250  153.9070 H   0  0  0  0  0  0  0  0  0  0  0  0
  132.5630  135.0910  151.1690 O   0  0  0  0  0  0  0  0  0  0  0  0
  132.4930  133.9060  150.3870 C   0  0  0  0  0  1  0  0  0  0  0  0
  1  3  1  0  0  0  0
  1  5  1  0  0  0  0
  2  1  2  0  0  0  0
  3  4  1  0  0  0  0
  5  6  1  0  0  0  0
  6  7  1  0  0  0  0
  7  8  1  0  0  0  0
  8  9  1  0  0  0  0
  9 11  1  0  0  0  0
 11 10  1  0  0  0  0
 12  3  1  0  0  0  0
 12 13  1  0  0  0  0
 13 14  1  0  0  0  0
 14 15  2  0  0  0  0
 16 15  1  0  0  0  0
 16 19  1  0  0  0  0
 17 16  2  0  0  0  0
 18 13  2  0  0  0  0
 18 17  1  0  0  0  0
 20 19  1  0  0  0  0
 21 17  1  0  0  0  0
 22 21  1  0  0  0  0
M  END
>  <MODEL>
7

>  <REMARK>
 VINA RESULT:    -5.186      7.114     11.128
 INTER + INTRA:          -9.632
 INTER:                  -8.397
 INTRA:                  -1.235
 UNBOUND:                -1.565
  Name = CHEMBL86443
  12 active torsions:
  status: ('A' for Active; 'I' for Inactive)
    1  A    between atoms: C_1  and  C_2
    2  A    between atoms: C_2  and  C_3
    3  A    between atoms: C_3  and  C_4
    4  A    between atoms: C_4  and  C_5
    5  A    between atoms: C_5  and  C_6
    6  A    between atoms: C_6  and  C_7
    7  A    between atoms: C_7  and  C_8
    8  A    between atoms: N_10  and  C_11
    9  A    between atoms: C_11  and  C_12
   10  A    between atoms: C_15  and  O_16
   11  A    between atoms: C_17  and  O_18
   12  A    between atoms: O_18  and  C_19
                            x       y       z     vdW  Elec       q    Type
                         _______ _______ _______ _____ _____    ______ ____

>  <TORSDO>
F 10

>  <SCORE>
-5.186

>  <RMSD_LB>
7.114

>  <RMSD_UB>
11.128

$$$$
CHEMBL86443
 OpenBabel10162523593D

 22 22  0  0  0  0  0  0  0  0999 V2000
  145.1590  138.9660  149.7300 C   0  0  0  0  0  0  0  0  0  0  0  0
  144.0520  138.8100  150.2360 O   0  0  0  0  0  0  0  0  0  0  0  0
  146.2550  138.2000  150.0490 N   0  0  0  0  0  0  0  0  0  0  0  0
  147.1200  138.4090  149.6280 H   0  0  0  0  0  0  0  0  0  0  0  0
  145.4190  140.0520  148.7040 C   0  0  0  0  0  2  0  0  0  0  0  0
  146.6890  140.8580  148.9750 C   0  0  0  0  0  2  0  0  0  0  0  0
  146.4230  142.0900  149.8440 C   0  0  0  0  0  2  0  0  0  0  0  0
  147.5420  142.2980  150.8630 C   0  0  0  0  0  2  0  0  0  0  0  0
  147.8040  141.0180  151.6540 C   0  0  0  0  0  2  0  0  0  0  0  0
  147.7300  141.8550  154.0250 C   0  0  0  0  0  1  0  0  0  0  0  0
  148.6140  141.3040  152.9180 C   0  0  0  0  0  2  0  0  0  0  0  0
  146.1790  137.1000  150.9810 C   0  0  0  0  0  2  0  0  0  0  0  0
  146.6580  137.5170  152.3480 C   0  0  0  0  0  0  0  0  0  0  0  0
  145.7560  138.0330  153.2840 C   0  0  0  0  0  3  0  0  0  0  0  0
  146.1950  138.4210  154.5500 C   0  0  0  0  0  3  0  0  0  0  0  0
  147.5430  138.2860  154.9030 C   0  0  0  0  0  0  0  0  0  0  0  0
  148.4630  137.7620  153.9890 C   0  0  0  0  0  0  0  0  0  0  0  0
  148.0050  137.3780  152.7180 C   0  0  0  0  0  3  0  0  0  0  0  0
  147.9200  138.6770  156.1580 O   0  0  0  0  0  0  0  0  0  0  0  0
  147.2830  139.0170  156.7550 H   0  0  0  0  0  0  0  0  0  0  0  0
  149.8070  137.5590  154.1560 O   0  0  0  0  0  0  0  0  0  0  0  0
  150.5210  136.9090  153.1140 C   0  0  0  0  0  1  0  0  0  0  0  0
  1  3  1  0  0  0  0
  1  2  2  0  0  0  0
  3 12  1  0  0  0  0
  4  3  1  0  0  0  0
  5  6  1  0  0  0  0
  5  1  1  0  0  0  0
  6  7  1  0  0  0  0
  7  8  1  0  0  0  0
  8  9  1  0  0  0  0
  9 11  1  0  0  0  0
 11 10  1  0  0  0  0
 12 13  1  0  0  0  0
 13 18  2  0  0  0  0
 13 14  1  0  0  0  0
 14 15  2  0  0  0  0
 15 16  1  0  0  0  0
 16 19  1  0  0  0  0
 17 21  1  0  0  0  0
 17 16  2  0  0  0  0
 18 17  1  0  0  0  0
 19 20  1  0  0  0  0
 22 21  1  0  0  0  0
M  END
>  <MODEL>
8

>  <REMARK>
 VINA RESULT:    -5.132      2.596      4.930
 INTER + INTRA:          -9.547
 INTER:                  -7.872
 INTRA:                  -1.675
 UNBOUND:                -1.565
  Name = CHEMBL86443
  12 active torsions:
  status: ('A' for Active; 'I' for Inactive)
    1  A    between atoms: C_1  and  C_2
    2  A    between atoms: C_2  and  C_3
    3  A    between atoms: C_3  and  C_4
    4  A    between atoms: C_4  and  C_5
    5  A    between atoms: C_5  and  C_6
    6  A    between atoms: C_6  and  C_7
    7  A    between atoms: C_7  and  C_8
    8  A    between atoms: N_10  and  C_11
    9  A    between atoms: C_11  and  C_12
   10  A    between atoms: C_15  and  O_16
   11  A    between atoms: C_17  and  O_18
   12  A    between atoms: O_18  and  C_19
                            x       y       z     vdW  Elec       q    Type
                         _______ _______ _______ _____ _____    ______ ____

>  <TORSDO>
F 10

>  <SCORE>
-5.132

>  <RMSD_LB>
2.596

>  <RMSD_UB>
4.930

$$$$
CHEMBL86443
 OpenBabel10162523593D

 22 22  0  0  0  0  0  0  0  0999 V2000
  137.1680  136.0500  149.9370 C   0  0  0  0  0  0  0  0  0  0  0  0
  137.4360  137.1100  149.3790 O   0  0  0  0  0  0  0  0  0  0  0  0
  137.4330  134.8160  149.3920 N   0  0  0  0  0  0  0  0  0  0  0  0
  137.1550  134.0100  149.8830 H   0  0  0  0  0  0  0  0  0  0  0  0
  136.4930  136.0130  151.2940 C   0  0  0  0  0  2  0  0  0  0  0  0
  135.4100  134.9410  151.4100 C   0  0  0  0  0  2  0  0  0  0  0  0
  134.1240  135.3280  150.6770 C   0  0  0  0  0  2  0  0  0  0  0  0
  133.2220  134.1140  150.4660 C   0  0  0  0  0  2  0  0  0  0  0  0
  134.0450  132.8830  150.0850 C   0  0  0  0  0  2  0  0  0  0  0  0
  132.7600  133.3100  147.9640 C   0  0  0  0  0  1  0  0  0  0  0  0
  133.9470  132.5950  148.5870 C   0  0  0  0  0  2  0  0  0  0  0  0
  138.1030  134.6650  148.1220 C   0  0  0  0  0  2  0  0  0  0  0  0
  137.1920  134.0300  147.1020 C   0  0  0  0  0  0  0  0  0  0  0  0
  137.3380  132.6790  146.7710 C   0  0  0  0  0  3  0  0  0  0  0  0
  136.4980  132.0890  145.8260 C   0  0  0  0  0  3  0  0  0  0  0  0
  135.4910  132.8380  145.2080 C   0  0  0  0  0  0  0  0  0  0  0  0
  135.3180  134.1890  145.5300 C   0  0  0  0  0  0  0  0  0  0  0  0
  136.1740  134.7690  146.4810 C   0  0  0  0  0  3  0  0  0  0  0  0
  134.6920  132.2100  144.2930 O   0  0  0  0  0  0  0  0  0  0  0  0
  134.9620  132.1510  143.3980 H   0  0  0  0  0  0  0  0  0  0  0  0
  134.3960  135.0710  145.0310 O   0  0  0  0  0  0  0  0  0  0  0  0
  134.8740  136.2270  144.3580 C   0  0  0  0  0  1  0  0  0  0  0  0
  1  5  1  0  0  0  0
  2  1  2  0  0  0  0
  3  4  1  0  0  0  0
  3  1  1  0  0  0  0
  5  6  1  0  0  0  0
  7  6  1  0  0  0  0
  8  7  1  0  0  0  0
  9  8  1  0  0  0  0
 10 11  1  0  0  0  0
 11  9  1  0  0  0  0
 12  3  1  0  0  0  0
 13 12  1  0  0  0  0
 14 13  1  0  0  0  0
 15 14  2  0  0  0  0
 16 17  2  0  0  0  0
 16 15  1  0  0  0  0
 17 18  1  0  0  0  0
 18 13  2  0  0  0  0
 19 16  1  0  0  0  0
 20 19  1  0  0  0  0
 21 17  1  0  0  0  0
 22 21  1  0  0  0  0
M  END
>  <MODEL>
9

>  <REMARK>
 VINA RESULT:    -5.059     10.249     13.322
 INTER + INTRA:          -9.434
 INTER:                  -7.868
 INTRA:                  -1.565
 UNBOUND:                -1.565
  Name = CHEMBL86443
  12 active torsions:
  status: ('A' for Active; 'I' for Inactive)
    1  A    between atoms: C_1  and  C_2
    2  A    between atoms: C_2  and  C_3
    3  A    between atoms: C_3  and  C_4
    4  A    between atoms: C_4  and  C_5
    5  A    between atoms: C_5  and  C_6
    6  A    between atoms: C_6  and  C_7
    7  A    between atoms: C_7  and  C_8
    8  A    between atoms: N_10  and  C_11
    9  A    between atoms: C_11  and  C_12
   10  A    between atoms: C_15  and  O_16
   11  A    between atoms: C_17  and  O_18
   12  A    between atoms: O_18  and  C_19
                            x       y       z     vdW  Elec       q    Type
                         _______ _______ _______ _____ _____    ______ ____

>  <TORSDO>
F 10

>  <SCORE>
-5.059

>  <RMSD_LB>
10.249

>  <RMSD_UB>
13.322

$$$$
