CHEMBL1215172
 OpenBabel10172500123D

 22 22  0  0  0  0  0  0  0  0999 V2000
  146.5960  141.6420  148.9340 C   0  0  0  0  0  2  0  0  0  0  0  0
  144.3630  140.9400  149.5690 N   0  0  0  0  0  0  0  0  0  0  0  0
  145.6170  140.5120  149.1900 C   0  0  0  0  0  0  0  0  0  0  0  0
  145.9250  139.3280  149.1010 O   0  0  0  0  0  0  0  0  0  0  0  0
  144.1920  141.9060  149.6510 H   0  0  0  0  0  0  0  0  0  0  0  0
  143.2890  140.0080  149.8510 C   0  0  0  0  0  2  0  0  0  0  0  0
  143.1440  139.7400  151.3480 C   0  0  0  0  0  2  0  0  0  0  0  0
  143.3190  138.2520  151.6520 C   0  0  0  0  0  2  0  0  0  0  0  0
  142.1130  137.6810  152.3980 C   0  0  0  0  0  2  0  0  0  0  0  0
  139.7230  138.0270  151.6790 C   0  0  0  0  0  1  0  0  0  0  0  0
  141.0110  137.2590  151.4260 C   0  0  0  0  0  2  0  0  0  0  0  0
  146.5070  142.6970  150.0370 C   0  0  0  0  0  2  0  0  0  0  0  0
  147.0950  142.2200  151.3420 C   0  0  0  0  0  0  0  0  0  0  0  0
  148.4800  142.1660  151.5150 C   0  0  0  0  0  3  0  0  0  0  0  0
  149.0270  141.7140  152.7180 C   0  0  0  0  0  3  0  0  0  0  0  0
  148.1930  141.3120  153.7670 C   0  0  0  0  0  0  0  0  0  0  0  0
  146.8020  141.3630  153.6220 C   0  0  0  0  0  0  0  0  0  0  0  0
  146.2680  141.8160  152.4040 C   0  0  0  0  0  3  0  0  0  0  0  0
  148.7800  140.8710  154.9200 O   0  0  0  0  0  0  0  0  0  0  0  0
  148.2620  140.7490  155.6920 H   0  0  0  0  0  0  0  0  0  0  0  0
  145.8410  141.0210  154.5360 O   0  0  0  0  0  0  0  0  0  0  0  0
  145.2910  139.7120  154.4690 C   0  0  0  0  0  1  0  0  0  0  0  0
  1  3  1  0  0  0  0
  1 12  1  0  0  0  0
  2  5  1  0  0  0  0
  2  6  1  0  0  0  0
  3  2  1  0  0  0  0
  4  3  2  0  0  0  0
  6  7  1  0  0  0  0
  7  8  1  0  0  0  0
  8  9  1  0  0  0  0
 11 10  1  0  0  0  0
 11  9  1  0  0  0  0
 12 13  1  0  0  0  0
 13 14  2  0  0  0  0
 13 18  1  0  0  0  0
 14 15  1  0  0  0  0
 15 16  2  0  0  0  0
 16 19  1  0  0  0  0
 17 16  1  0  0  0  0
 17 21  1  0  0  0  0
 18 17  2  0  0  0  0
 19 20  1  0  0  0  0
 22 21  1  0  0  0  0
M  END
>  <MODEL>
1

>  <REMARK>
 VINA RESULT:    -6.294      0.000      0.000
 INTER + INTRA:         -10.373
 INTER:                  -9.444
 INTRA:                  -0.928
 UNBOUND:                -0.583
  Name = CHEMBL1215172
  12 active torsions:
  status: ('A' for Active; 'I' for Inactive)
    1  A    between atoms: C_1  and  C_2
    2  A    between atoms: C_2  and  C_3
    3  A    between atoms: C_3  and  C_4
    4  A    between atoms: C_4  and  C_5
    5  A    between atoms: C_5  and  C_6
    6  A    between atoms: C_6  and  N_7
    7  A    between atoms: C_8  and  C_10
    8  A    between atoms: C_10  and  C_11
    9  A    between atoms: C_11  and  C_12
   10  A    between atoms: C_15  and  O_16
   11  A    between atoms: C_17  and  O_18
   12  A    between atoms: O_18  and  C_19
                            x       y       z     vdW  Elec       q    Type
                         _______ _______ _______ _____ _____    ______ ____

>  <TORSDO>
F 10

>  <SCORE>
-6.294

>  <RMSD_LB>
0.000

>  <RMSD_UB>
0.000

$$$$
CHEMBL1215172
 OpenBabel10172500123D

 22 22  0  0  0  0  0  0  0  0999 V2000
  147.1600  141.9480  153.8180 C   0  0  0  0  0  2  0  0  0  0  0  0
  146.8760  139.8440  154.9900 N   0  0  0  0  0  0  0  0  0  0  0  0
  147.7920  140.7300  154.4660 C   0  0  0  0  0  0  0  0  0  0  0  0
  149.0050  140.5690  154.5450 O   0  0  0  0  0  0  0  0  0  0  0  0
  145.9160  140.0500  154.9190 H   0  0  0  0  0  0  0  0  0  0  0  0
  147.2860  138.6170  155.6440 C   0  0  0  0  0  2  0  0  0  0  0  0
  147.5940  137.5090  154.6380 C   0  0  0  0  0  2  0  0  0  0  0  0
  146.6580  137.5960  153.4320 C   0  0  0  0  0  2  0  0  0  0  0  0
  147.4240  137.8910  152.1420 C   0  0  0  0  0  2  0  0  0  0  0  0
  145.6890  136.3470  151.1630 C   0  0  0  0  0  1  0  0  0  0  0  0
  146.5830  137.5510  150.9110 C   0  0  0  0  0  2  0  0  0  0  0  0
  147.5470  142.0400  152.3420 C   0  0  0  0  0  2  0  0  0  0  0  0
  146.4780  141.4890  151.4300 C   0  0  0  0  0  0  0  0  0  0  0  0
  145.2230  141.1460  151.9390 C   0  0  0  0  0  3  0  0  0  0  0  0
  144.2360  140.6260  151.1000 C   0  0  0  0  0  3  0  0  0  0  0  0
  144.4910  140.4440  149.7360 C   0  0  0  0  0  0  0  0  0  0  0  0
  145.7370  140.7860  149.1990 C   0  0  0  0  0  0  0  0  0  0  0  0
  146.7210  141.3040  150.0590 C   0  0  0  0  0  3  0  0  0  0  0  0
  143.4920  139.9250  148.9600 O   0  0  0  0  0  0  0  0  0  0  0  0
  142.7470  140.4500  148.7430 H   0  0  0  0  0  0  0  0  0  0  0  0
  146.1570  140.6860  147.9000 O   0  0  0  0  0  0  0  0  0  0  0  0
  146.7500  139.4630  147.4820 C   0  0  0  0  0  1  0  0  0  0  0  0
  1  3  1  0  0  0  0
  2  6  1  0  0  0  0
  3  4  2  0  0  0  0
  3  2  1  0  0  0  0
  5  2  1  0  0  0  0
  7  6  1  0  0  0  0
  8  7  1  0  0  0  0
  9  8  1  0  0  0  0
 11 10  1  0  0  0  0
 11  9  1  0  0  0  0
 12  1  1  0  0  0  0
 13 14  1  0  0  0  0
 13 12  1  0  0  0  0
 15 14  2  0  0  0  0
 16 15  1  0  0  0  0
 17 16  2  0  0  0  0
 17 18  1  0  0  0  0
 18 13  2  0  0  0  0
 19 16  1  0  0  0  0
 20 19  1  0  0  0  0
 21 17  1  0  0  0  0
 22 21  1  0  0  0  0
M  END
>  <MODEL>
2

>  <REMARK>
 VINA RESULT:    -6.195      2.673      5.470
 INTER + INTRA:         -10.218
 INTER:                  -8.610
 INTRA:                  -1.608
 UNBOUND:                -0.583
  Name = CHEMBL1215172
  12 active torsions:
  status: ('A' for Active; 'I' for Inactive)
    1  A    between atoms: C_1  and  C_2
    2  A    between atoms: C_2  and  C_3
    3  A    between atoms: C_3  and  C_4
    4  A    between atoms: C_4  and  C_5
    5  A    between atoms: C_5  and  C_6
    6  A    between atoms: C_6  and  N_7
    7  A    between atoms: C_8  and  C_10
    8  A    between atoms: C_10  and  C_11
    9  A    between atoms: C_11  and  C_12
   10  A    between atoms: C_15  and  O_16
   11  A    between atoms: C_17  and  O_18
   12  A    between atoms: O_18  and  C_19
                            x       y       z     vdW  Elec       q    Type
                         _______ _______ _______ _____ _____    ______ ____

>  <TORSDO>
F 10

>  <SCORE>
-6.195

>  <RMSD_LB>
2.673

>  <RMSD_UB>
5.470

$$$$
CHEMBL1215172
 OpenBabel10172500123D

 22 22  0  0  0  0  0  0  0  0999 V2000
  146.3790  142.7390  149.9650 C   0  0  0  0  0  2  0  0  0  0  0  0
  144.6250  141.0640  149.9360 N   0  0  0  0  0  0  0  0  0  0  0  0
  145.8590  141.4170  149.4330 C   0  0  0  0  0  0  0  0  0  0  0  0
  146.4950  140.7130  148.6560 O   0  0  0  0  0  0  0  0  0  0  0  0
  144.1830  141.6620  150.5820 H   0  0  0  0  0  0  0  0  0  0  0  0
  143.9600  139.8390  149.5420 C   0  0  0  0  0  2  0  0  0  0  0  0
  142.9570  139.3700  150.5940 C   0  0  0  0  0  2  0  0  0  0  0  0
  142.9870  137.8480  150.7330 C   0  0  0  0  0  2  0  0  0  0  0  0
  142.5310  137.3960  152.1210 C   0  0  0  0  0  2  0  0  0  0  0  0
  140.8630  138.1990  153.8310 C   0  0  0  0  0  1  0  0  0  0  0  0
  141.0770  137.7920  152.3810 C   0  0  0  0  0  2  0  0  0  0  0  0
  147.7390  142.5570  150.6380 C   0  0  0  0  0  2  0  0  0  0  0  0
  147.6470  141.7670  151.9210 C   0  0  0  0  0  0  0  0  0  0  0  0
  146.7890  142.1790  152.9440 C   0  0  0  0  0  3  0  0  0  0  0  0
  146.7090  141.4560  154.1360 C   0  0  0  0  0  3  0  0  0  0  0  0
  147.4880  140.3070  154.3190 C   0  0  0  0  0  0  0  0  0  0  0  0
  148.3490  139.8690  153.3080 C   0  0  0  0  0  0  0  0  0  0  0  0
  148.4210  140.6110  152.1170 C   0  0  0  0  0  3  0  0  0  0  0  0
  147.3770  139.6410  155.5080 O   0  0  0  0  0  0  0  0  0  0  0  0
  147.8070  138.8160  155.6250 H   0  0  0  0  0  0  0  0  0  0  0  0
  149.1710  138.7740  153.3090 O   0  0  0  0  0  0  0  0  0  0  0  0
  148.6450  137.5420  152.8330 C   0  0  0  0  0  1  0  0  0  0  0  0
  1 12  1  0  0  0  0
  2  5  1  0  0  0  0
  3  2  1  0  0  0  0
  3  1  1  0  0  0  0
  4  3  2  0  0  0  0
  6  2  1  0  0  0  0
  6  7  1  0  0  0  0
  7  8  1  0  0  0  0
  8  9  1  0  0  0  0
  9 11  1  0  0  0  0
 11 10  1  0  0  0  0
 12 13  1  0  0  0  0
 13 18  2  0  0  0  0
 13 14  1  0  0  0  0
 14 15  2  0  0  0  0
 15 16  1  0  0  0  0
 16 19  1  0  0  0  0
 17 21  1  0  0  0  0
 17 16  2  0  0  0  0
 18 17  1  0  0  0  0
 19 20  1  0  0  0  0
 22 21  1  0  0  0  0
M  END
>  <MODEL>
3

>  <REMARK>
 VINA RESULT:    -6.104      1.524      2.046
 INTER + INTRA:         -10.077
 INTER:                  -9.291
 INTRA:                  -0.786
 UNBOUND:                -0.583
  Name = CHEMBL1215172
  12 active torsions:
  status: ('A' for Active; 'I' for Inactive)
    1  A    between atoms: C_1  and  C_2
    2  A    between atoms: C_2  and  C_3
    3  A    between atoms: C_3  and  C_4
    4  A    between atoms: C_4  and  C_5
    5  A    between atoms: C_5  and  C_6
    6  A    between atoms: C_6  and  N_7
    7  A    between atoms: C_8  and  C_10
    8  A    between atoms: C_10  and  C_11
    9  A    between atoms: C_11  and  C_12
   10  A    between atoms: C_15  and  O_16
   11  A    between atoms: C_17  and  O_18
   12  A    between atoms: O_18  and  C_19
                            x       y       z     vdW  Elec       q    Type
                         _______ _______ _______ _____ _____    ______ ____

>  <TORSDO>
F 10

>  <SCORE>
-6.104

>  <RMSD_LB>
1.524

>  <RMSD_UB>
2.046

$$$$
CHEMBL1215172
 OpenBabel10172500123D

 22 22  0  0  0  0  0  0  0  0999 V2000
  142.3560  138.7670  150.9600 C   0  0  0  0  0  2  0  0  0  0  0  0
  143.9240  140.5480  150.4600 N   0  0  0  0  0  0  0  0  0  0  0  0
  143.4080  139.7430  151.4520 C   0  0  0  0  0  0  0  0  0  0  0  0
  143.7880  139.7840  152.6180 O   0  0  0  0  0  0  0  0  0  0  0  0
  143.5960  140.4400  149.5380 H   0  0  0  0  0  0  0  0  0  0  0  0
  144.9360  141.5490  150.7350 C   0  0  0  0  0  2  0  0  0  0  0  0
  146.3470  140.9690  150.6620 C   0  0  0  0  0  2  0  0  0  0  0  0
  147.3050  141.7560  151.5560 C   0  0  0  0  0  2  0  0  0  0  0  0
  146.6140  142.2540  152.8260 C   0  0  0  0  0  2  0  0  0  0  0  0
  148.9180  141.7530  153.7160 C   0  0  0  0  0  1  0  0  0  0  0  0
  147.4500  141.9430  154.0670 C   0  0  0  0  0  2  0  0  0  0  0  0
  142.0830  137.6880  152.0080 C   0  0  0  0  0  2  0  0  0  0  0  0
  140.7840  137.9130  152.7440 C   0  0  0  0  0  0  0  0  0  0  0  0
  140.7870  138.4630  154.0280 C   0  0  0  0  0  3  0  0  0  0  0  0
  139.5870  138.6630  154.7150 C   0  0  0  0  0  3  0  0  0  0  0  0
  138.3670  138.3140  154.1240 C   0  0  0  0  0  0  0  0  0  0  0  0
  138.3370  137.7680  152.8360 C   0  0  0  0  0  0  0  0  0  0  0  0
  139.5540  137.5700  152.1600 C   0  0  0  0  0  3  0  0  0  0  0  0
  137.2230  138.5240  154.8430 O   0  0  0  0  0  0  0  0  0  0  0  0
  136.7570  139.3320  154.7550 H   0  0  0  0  0  0  0  0  0  0  0  0
  137.2470  137.3800  152.1040 O   0  0  0  0  0  0  0  0  0  0  0  0
  137.3850  137.2960  150.6920 C   0  0  0  0  0  1  0  0  0  0  0  0
  1  3  1  0  0  0  0
  1 12  1  0  0  0  0
  2  6  1  0  0  0  0
  2  3  1  0  0  0  0
  3  4  2  0  0  0  0
  5  2  1  0  0  0  0
  7  6  1  0  0  0  0
  7  8  1  0  0  0  0
  8  9  1  0  0  0  0
  9 11  1  0  0  0  0
 10 11  1  0  0  0  0
 12 13  1  0  0  0  0
 13 14  1  0  0  0  0
 14 15  2  0  0  0  0
 16 15  1  0  0  0  0
 16 19  1  0  0  0  0
 17 16  2  0  0  0  0
 18 13  2  0  0  0  0
 18 17  1  0  0  0  0
 20 19  1  0  0  0  0
 21 17  1  0  0  0  0
 22 21  1  0  0  0  0
M  END
>  <MODEL>
4

>  <REMARK>
 VINA RESULT:    -5.955      3.357      7.678
 INTER + INTRA:          -9.845
 INTER:                  -9.217
 INTRA:                  -0.628
 UNBOUND:                -0.583
  Name = CHEMBL1215172
  12 active torsions:
  status: ('A' for Active; 'I' for Inactive)
    1  A    between atoms: C_1  and  C_2
    2  A    between atoms: C_2  and  C_3
    3  A    between atoms: C_3  and  C_4
    4  A    between atoms: C_4  and  C_5
    5  A    between atoms: C_5  and  C_6
    6  A    between atoms: C_6  and  N_7
    7  A    between atoms: C_8  and  C_10
    8  A    between atoms: C_10  and  C_11
    9  A    between atoms: C_11  and  C_12
   10  A    between atoms: C_15  and  O_16
   11  A    between atoms: C_17  and  O_18
   12  A    between atoms: O_18  and  C_19
                            x       y       z     vdW  Elec       q    Type
                         _______ _______ _______ _____ _____    ______ ____

>  <TORSDO>
F 10

>  <SCORE>
-5.955

>  <RMSD_LB>
3.357

>  <RMSD_UB>
7.678

$$$$
CHEMBL1215172
 OpenBabel10172500123D

 22 22  0  0  0  0  0  0  0  0999 V2000
  146.6580  136.8910  153.4440 C   0  0  0  0  0  2  0  0  0  0  0  0
  147.6180  139.1100  153.6380 N   0  0  0  0  0  0  0  0  0  0  0  0
  147.6280  137.8270  154.1400 C   0  0  0  0  0  0  0  0  0  0  0  0
  148.3770  137.4630  155.0410 O   0  0  0  0  0  0  0  0  0  0  0  0
  147.0130  139.3270  152.8910 H   0  0  0  0  0  0  0  0  0  0  0  0
  148.4710  140.1500  154.1760 C   0  0  0  0  0  2  0  0  0  0  0  0
  148.6310  141.3180  153.2040 C   0  0  0  0  0  2  0  0  0  0  0  0
  147.2790  141.9640  152.9060 C   0  0  0  0  0  2  0  0  0  0  0  0
  147.0880  142.2160  151.4100 C   0  0  0  0  0  2  0  0  0  0  0  0
  144.8620  141.1840  150.8370 C   0  0  0  0  0  1  0  0  0  0  0  0
  145.6200  142.4800  151.0760 C   0  0  0  0  0  2  0  0  0  0  0  0
  146.0670  137.5500  152.1970 C   0  0  0  0  0  2  0  0  0  0  0  0
  144.5580  137.5250  152.1900 C   0  0  0  0  0  0  0  0  0  0  0  0
  143.8630  137.2390  151.0130 C   0  0  0  0  0  3  0  0  0  0  0  0
  142.4660  137.2260  151.0010 C   0  0  0  0  0  3  0  0  0  0  0  0
  141.7460  137.4960  152.1700 C   0  0  0  0  0  0  0  0  0  0  0  0
  142.4190  137.7770  153.3640 C   0  0  0  0  0  0  0  0  0  0  0  0
  143.8250  137.7910  153.3580 C   0  0  0  0  0  3  0  0  0  0  0  0
  140.3810  137.4760  152.1020 O   0  0  0  0  0  0  0  0  0  0  0  0
  139.8820  137.1050  152.8030 H   0  0  0  0  0  0  0  0  0  0  0  0
  141.8850  138.0540  154.5940 O   0  0  0  0  0  0  0  0  0  0  0  0
  142.0920  139.3520  155.1370 C   0  0  0  0  0  1  0  0  0  0  0  0
  1  3  1  0  0  0  0
  2  3  1  0  0  0  0
  2  6  1  0  0  0  0
  3  4  2  0  0  0  0
  5  2  1  0  0  0  0
  7  6  1  0  0  0  0
  8  7  1  0  0  0  0
  9  8  1  0  0  0  0
 10 11  1  0  0  0  0
 11  9  1  0  0  0  0
 12  1  1  0  0  0  0
 13 12  1  0  0  0  0
 13 18  1  0  0  0  0
 14 13  2  0  0  0  0
 15 14  1  0  0  0  0
 15 16  2  0  0  0  0
 16 17  1  0  0  0  0
 17 21  1  0  0  0  0
 18 17  2  0  0  0  0
 19 16  1  0  0  0  0
 19 20  1  0  0  0  0
 21 22  1  0  0  0  0
M  END
>  <MODEL>
5

>  <REMARK>
 VINA RESULT:    -5.938      2.901      6.365
 INTER + INTRA:          -9.819
 INTER:                  -8.794
 INTRA:                  -1.024
 UNBOUND:                -0.583
  Name = CHEMBL1215172
  12 active torsions:
  status: ('A' for Active; 'I' for Inactive)
    1  A    between atoms: C_1  and  C_2
    2  A    between atoms: C_2  and  C_3
    3  A    between atoms: C_3  and  C_4
    4  A    between atoms: C_4  and  C_5
    5  A    between atoms: C_5  and  C_6
    6  A    between atoms: C_6  and  N_7
    7  A    between atoms: C_8  and  C_10
    8  A    between atoms: C_10  and  C_11
    9  A    between atoms: C_11  and  C_12
   10  A    between atoms: C_15  and  O_16
   11  A    between atoms: C_17  and  O_18
   12  A    between atoms: O_18  and  C_19
                            x       y       z     vdW  Elec       q    Type
                         _______ _______ _______ _____ _____    ______ ____

>  <TORSDO>
F 10

>  <SCORE>
-5.938

>  <RMSD_LB>
2.901

>  <RMSD_UB>
6.365

$$$$
CHEMBL1215172
 OpenBabel10172500123D

 22 22  0  0  0  0  0  0  0  0999 V2000
  143.6700  139.0450  152.5900 C   0  0  0  0  0  2  0  0  0  0  0  0
  145.8980  138.4100  153.3070 N   0  0  0  0  0  0  0  0  0  0  0  0
  144.7570  139.1050  153.6470 C   0  0  0  0  0  0  0  0  0  0  0  0
  144.6170  139.6880  154.7170 O   0  0  0  0  0  0  0  0  0  0  0  0
  145.9310  137.9380  152.4440 H   0  0  0  0  0  0  0  0  0  0  0  0
  147.0500  138.3550  154.1850 C   0  0  0  0  0  2  0  0  0  0  0  0
  148.1980  139.2240  153.6750 C   0  0  0  0  0  2  0  0  0  0  0  0
  148.3210  140.5020  154.5060 C   0  0  0  0  0  2  0  0  0  0  0  0
  148.4790  141.7390  153.6220 C   0  0  0  0  0  2  0  0  0  0  0  0
  146.2160  142.3210  152.6790 C   0  0  0  0  0  1  0  0  0  0  0  0
  147.5610  141.6680  152.4010 C   0  0  0  0  0  2  0  0  0  0  0  0
  142.8890  137.7350  152.6870 C   0  0  0  0  0  2  0  0  0  0  0  0
  141.4710  137.9410  153.1610 C   0  0  0  0  0  0  0  0  0  0  0  0
  141.2160  138.3160  154.4830 C   0  0  0  0  0  3  0  0  0  0  0  0
  139.9050  138.4970  154.9270 C   0  0  0  0  0  3  0  0  0  0  0  0
  138.8290  138.3070  154.0520 C   0  0  0  0  0  0  0  0  0  0  0  0
  139.0570  137.9390  152.7220 C   0  0  0  0  0  0  0  0  0  0  0  0
  140.3830  137.7570  152.2920 C   0  0  0  0  0  3  0  0  0  0  0  0
  137.5650  138.4910  154.5410 O   0  0  0  0  0  0  0  0  0  0  0  0
  137.3590  139.2650  155.0270 H   0  0  0  0  0  0  0  0  0  0  0  0
  138.1370  137.7200  151.7320 O   0  0  0  0  0  0  0  0  0  0  0  0
  138.5500  137.8980  150.3840 C   0  0  0  0  0  1  0  0  0  0  0  0
  1 12  1  0  0  0  0
  1  3  1  0  0  0  0
  2  3  1  0  0  0  0
  2  6  1  0  0  0  0
  3  4  2  0  0  0  0
  5  2  1  0  0  0  0
  7  6  1  0  0  0  0
  7  8  1  0  0  0  0
  9  8  1  0  0  0  0
 11 10  1  0  0  0  0
 11  9  1  0  0  0  0
 12 13  1  0  0  0  0
 13 14  1  0  0  0  0
 14 15  2  0  0  0  0
 16 19  1  0  0  0  0
 16 15  1  0  0  0  0
 17 16  2  0  0  0  0
 18 17  1  0  0  0  0
 18 13  2  0  0  0  0
 19 20  1  0  0  0  0
 21 17  1  0  0  0  0
 22 21  1  0  0  0  0
M  END
>  <MODEL>
6

>  <REMARK>
 VINA RESULT:    -5.881      3.294      7.630
 INTER + INTRA:          -9.730
 INTER:                  -8.843
 INTRA:                  -0.887
 UNBOUND:                -0.583
  Name = CHEMBL1215172
  12 active torsions:
  status: ('A' for Active; 'I' for Inactive)
    1  A    between atoms: C_1  and  C_2
    2  A    between atoms: C_2  and  C_3
    3  A    between atoms: C_3  and  C_4
    4  A    between atoms: C_4  and  C_5
    5  A    between atoms: C_5  and  C_6
    6  A    between atoms: C_6  and  N_7
    7  A    between atoms: C_8  and  C_10
    8  A    between atoms: C_10  and  C_11
    9  A    between atoms: C_11  and  C_12
   10  A    between atoms: C_15  and  O_16
   11  A    between atoms: C_17  and  O_18
   12  A    between atoms: O_18  and  C_19
                            x       y       z     vdW  Elec       q    Type
                         _______ _______ _______ _____ _____    ______ ____

>  <TORSDO>
F 10

>  <SCORE>
-5.881

>  <RMSD_LB>
3.294

>  <RMSD_UB>
7.630

$$$$
CHEMBL1215172
 OpenBabel10172500123D

 22 22  0  0  0  0  0  0  0  0999 V2000
  146.2080  140.9940  149.1560 C   0  0  0  0  0  2  0  0  0  0  0  0
  145.5240  138.7090  149.5910 N   0  0  0  0  0  0  0  0  0  0  0  0
  145.0860  139.9980  149.3820 C   0  0  0  0  0  0  0  0  0  0  0  0
  143.9000  140.3080  149.3450 O   0  0  0  0  0  0  0  0  0  0  0  0
  146.4910  138.5230  149.5760 H   0  0  0  0  0  0  0  0  0  0  0  0
  144.6020  137.6170  149.8310 C   0  0  0  0  0  2  0  0  0  0  0  0
  144.4950  137.2760  151.3160 C   0  0  0  0  0  2  0  0  0  0  0  0
  145.8780  137.2420  151.9660 C   0  0  0  0  0  2  0  0  0  0  0  0
  145.8250  136.6690  153.3830 C   0  0  0  0  0  2  0  0  0  0  0  0
  148.1920  137.5210  153.2350 C   0  0  0  0  0  1  0  0  0  0  0  0
  147.1070  136.9840  154.1550 C   0  0  0  0  0  2  0  0  0  0  0  0
  146.1330  142.1360  150.1700 C   0  0  0  0  0  2  0  0  0  0  0  0
  146.8590  141.8160  151.4540 C   0  0  0  0  0  0  0  0  0  0  0  0
  148.2050  142.1600  151.6080 C   0  0  0  0  0  3  0  0  0  0  0  0
  148.8820  141.8560  152.7910 C   0  0  0  0  0  3  0  0  0  0  0  0
  148.2210  141.2040  153.8370 C   0  0  0  0  0  0  0  0  0  0  0  0
  146.8720  140.8560  153.7110 C   0  0  0  0  0  0  0  0  0  0  0  0
  146.2060  141.1650  152.5130 C   0  0  0  0  0  3  0  0  0  0  0  0
  148.9330  140.9240  154.9710 O   0  0  0  0  0  0  0  0  0  0  0  0
  148.8770  140.0740  155.3600 H   0  0  0  0  0  0  0  0  0  0  0  0
  146.0690  140.2280  154.6260 O   0  0  0  0  0  0  0  0  0  0  0  0
  144.7180  139.9710  154.2640 C   0  0  0  0  0  1  0  0  0  0  0  0
  1  3  1  0  0  0  0
  1 12  1  0  0  0  0
  2  6  1  0  0  0  0
  3  2  1  0  0  0  0
  4  3  2  0  0  0  0
  5  2  1  0  0  0  0
  6  7  1  0  0  0  0
  7  8  1  0  0  0  0
  8  9  1  0  0  0  0
  9 11  1  0  0  0  0
 10 11  1  0  0  0  0
 12 13  1  0  0  0  0
 13 14  2  0  0  0  0
 13 18  1  0  0  0  0
 14 15  1  0  0  0  0
 15 16  2  0  0  0  0
 16 19  1  0  0  0  0
 17 16  1  0  0  0  0
 17 21  1  0  0  0  0
 18 17  2  0  0  0  0
 19 20  1  0  0  0  0
 22 21  1  0  0  0  0
M  END
>  <MODEL>
7

>  <REMARK>
 VINA RESULT:    -5.861      1.892      2.943
 INTER + INTRA:          -9.699
 INTER:                  -8.410
 INTRA:                  -1.289
 UNBOUND:                -0.583
  Name = CHEMBL1215172
  12 active torsions:
  status: ('A' for Active; 'I' for Inactive)
    1  A    between atoms: C_1  and  C_2
    2  A    between atoms: C_2  and  C_3
    3  A    between atoms: C_3  and  C_4
    4  A    between atoms: C_4  and  C_5
    5  A    between atoms: C_5  and  C_6
    6  A    between atoms: C_6  and  N_7
    7  A    between atoms: C_8  and  C_10
    8  A    between atoms: C_10  and  C_11
    9  A    between atoms: C_11  and  C_12
   10  A    between atoms: C_15  and  O_16
   11  A    between atoms: C_17  and  O_18
   12  A    between atoms: O_18  and  C_19
                            x       y       z     vdW  Elec       q    Type
                         _______ _______ _______ _____ _____    ______ ____

>  <TORSDO>
F 10

>  <SCORE>
-5.861

>  <RMSD_LB>
1.892

>  <RMSD_UB>
2.943

$$$$
CHEMBL1215172
 OpenBabel10172500123D

 22 22  0  0  0  0  0  0  0  0999 V2000
  138.0690  138.0970  155.1450 C   0  0  0  0  0  2  0  0  0  0  0  0
  139.8000  137.9220  153.4570 N   0  0  0  0  0  0  0  0  0  0  0  0
  139.4990  138.3740  154.7230 C   0  0  0  0  0  0  0  0  0  0  0  0
  140.3190  138.9190  155.4560 O   0  0  0  0  0  0  0  0  0  0  0  0
  139.1030  137.4640  152.9340 H   0  0  0  0  0  0  0  0  0  0  0  0
  141.1150  138.0990  152.8730 C   0  0  0  0  0  2  0  0  0  0  0  0
  141.2690  137.3220  151.5670 C   0  0  0  0  0  2  0  0  0  0  0  0
  140.3520  137.8920  150.4850 C   0  0  0  0  0  2  0  0  0  0  0  0
  139.1850  136.9530  150.1790 C   0  0  0  0  0  2  0  0  0  0  0  0
  137.0520  136.7730  151.5090 C   0  0  0  0  0  1  0  0  0  0  0  0
  137.8450  137.6080  150.5160 C   0  0  0  0  0  2  0  0  0  0  0  0
  138.0290  137.4000  156.5050 C   0  0  0  0  0  2  0  0  0  0  0  0
  136.8500  136.4670  156.6410 C   0  0  0  0  0  0  0  0  0  0  0  0
  136.1820  136.0040  155.5050 C   0  0  0  0  0  3  0  0  0  0  0  0
  135.0840  135.1500  155.6290 C   0  0  0  0  0  3  0  0  0  0  0  0
  134.6420  134.7450  156.8930 C   0  0  0  0  0  0  0  0  0  0  0  0
  135.2980  135.1880  158.0460 C   0  0  0  0  0  0  0  0  0  0  0  0
  136.3980  136.0510  157.9040 C   0  0  0  0  0  3  0  0  0  0  0  0
  133.5580  133.9130  156.9580 O   0  0  0  0  0  0  0  0  0  0  0  0
  132.7030  134.2680  157.1000 H   0  0  0  0  0  0  0  0  0  0  0  0
  135.0130  134.8910  159.3520 O   0  0  0  0  0  0  0  0  0  0  0  0
  134.0660  135.7060  160.0310 C   0  0  0  0  0  1  0  0  0  0  0  0
  1 12  1  0  0  0  0
  2  3  1  0  0  0  0
  3  1  1  0  0  0  0
  3  4  2  0  0  0  0
  5  2  1  0  0  0  0
  6  2  1  0  0  0  0
  7  6  1  0  0  0  0
  8  7  1  0  0  0  0
  9  8  1  0  0  0  0
  9 11  1  0  0  0  0
 11 10  1  0  0  0  0
 12 13  1  0  0  0  0
 13 18  1  0  0  0  0
 14 15  1  0  0  0  0
 14 13  2  0  0  0  0
 15 16  2  0  0  0  0
 16 19  1  0  0  0  0
 16 17  1  0  0  0  0
 17 21  1  0  0  0  0
 18 17  2  0  0  0  0
 19 20  1  0  0  0  0
 21 22  1  0  0  0  0
M  END
>  <MODEL>
8

>  <REMARK>
 VINA RESULT:    -5.826      6.864     10.877
 INTER + INTRA:          -9.645
 INTER:                  -8.924
 INTRA:                  -0.721
 UNBOUND:                -0.583
  Name = CHEMBL1215172
  12 active torsions:
  status: ('A' for Active; 'I' for Inactive)
    1  A    between atoms: C_1  and  C_2
    2  A    between atoms: C_2  and  C_3
    3  A    between atoms: C_3  and  C_4
    4  A    between atoms: C_4  and  C_5
    5  A    between atoms: C_5  and  C_6
    6  A    between atoms: C_6  and  N_7
    7  A    between atoms: C_8  and  C_10
    8  A    between atoms: C_10  and  C_11
    9  A    between atoms: C_11  and  C_12
   10  A    between atoms: C_15  and  O_16
   11  A    between atoms: C_17  and  O_18
   12  A    between atoms: O_18  and  C_19
                            x       y       z     vdW  Elec       q    Type
                         _______ _______ _______ _____ _____    ______ ____

>  <TORSDO>
F 10

>  <SCORE>
-5.826

>  <RMSD_LB>
6.864

>  <RMSD_UB>
10.877

$$$$
CHEMBL1215172
 OpenBabel10172500123D

 22 22  0  0  0  0  0  0  0  0999 V2000
  138.2190  138.0740  154.7120 C   0  0  0  0  0  2  0  0  0  0  0  0
  140.5600  138.3270  154.1290 N   0  0  0  0  0  0  0  0  0  0  0  0
  139.6610  138.2080  155.1660 C   0  0  0  0  0  0  0  0  0  0  0  0
  139.9950  138.1760  156.3460 O   0  0  0  0  0  0  0  0  0  0  0  0
  140.2260  138.3130  153.2030 H   0  0  0  0  0  0  0  0  0  0  0  0
  141.9830  138.4710  154.3620 C   0  0  0  0  0  2  0  0  0  0  0  0
  142.8040  137.5270  153.4850 C   0  0  0  0  0  2  0  0  0  0  0  0
  142.2240  137.4560  152.0730 C   0  0  0  0  0  2  0  0  0  0  0  0
  143.3040  137.6400  151.0070 C   0  0  0  0  0  2  0  0  0  0  0  0
  143.7400  140.1220  150.9800 C   0  0  0  0  0  1  0  0  0  0  0  0
  144.2740  138.7590  151.3900 C   0  0  0  0  0  2  0  0  0  0  0  0
  137.3630  137.4340  155.8050 C   0  0  0  0  0  2  0  0  0  0  0  0
  136.4530  136.3560  155.2680 C   0  0  0  0  0  0  0  0  0  0  0  0
  136.4970  136.0040  153.9170 C   0  0  0  0  0  3  0  0  0  0  0  0
  135.6490  135.0140  153.4150 C   0  0  0  0  0  3  0  0  0  0  0  0
  134.7460  134.3610  154.2620 C   0  0  0  0  0  0  0  0  0  0  0  0
  134.6870  134.6900  155.6200 C   0  0  0  0  0  0  0  0  0  0  0  0
  135.5440  135.6910  156.1080 C   0  0  0  0  0  3  0  0  0  0  0  0
  133.9340  133.4050  153.7180 O   0  0  0  0  0  0  0  0  0  0  0  0
  133.5580  132.7430  154.2650 H   0  0  0  0  0  0  0  0  0  0  0  0
  133.8800  134.1550  156.5880 O   0  0  0  0  0  0  0  0  0  0  0  0
  134.0310  134.6270  157.9210 C   0  0  0  0  0  1  0  0  0  0  0  0
  1  3  1  0  0  0  0
  1 12  1  0  0  0  0
  2  6  1  0  0  0  0
  2  3  1  0  0  0  0
  3  4  2  0  0  0  0
  5  2  1  0  0  0  0
  7  6  1  0  0  0  0
  8  7  1  0  0  0  0
  9 11  1  0  0  0  0
  9  8  1  0  0  0  0
 10 11  1  0  0  0  0
 13 12  1  0  0  0  0
 13 18  1  0  0  0  0
 14 13  2  0  0  0  0
 15 14  1  0  0  0  0
 15 16  2  0  0  0  0
 16 17  1  0  0  0  0
 17 18  2  0  0  0  0
 17 21  1  0  0  0  0
 19 16  1  0  0  0  0
 19 20  1  0  0  0  0
 21 22  1  0  0  0  0
M  END
>  <MODEL>
9

>  <REMARK>
 VINA RESULT:    -5.732      6.461     10.826
 INTER + INTRA:          -9.498
 INTER:                  -8.915
 INTRA:                  -0.583
 UNBOUND:                -0.583
  Name = CHEMBL1215172
  12 active torsions:
  status: ('A' for Active; 'I' for Inactive)
    1  A    between atoms: C_1  and  C_2
    2  A    between atoms: C_2  and  C_3
    3  A    between atoms: C_3  and  C_4
    4  A    between atoms: C_4  and  C_5
    5  A    between atoms: C_5  and  C_6
    6  A    between atoms: C_6  and  N_7
    7  A    between atoms: C_8  and  C_10
    8  A    between atoms: C_10  and  C_11
    9  A    between atoms: C_11  and  C_12
   10  A    between atoms: C_15  and  O_16
   11  A    between atoms: C_17  and  O_18
   12  A    between atoms: O_18  and  C_19
                            x       y       z     vdW  Elec       q    Type
                         _______ _______ _______ _____ _____    ______ ____

>  <TORSDO>
F 10

>  <SCORE>
-5.732

>  <RMSD_LB>
6.461

>  <RMSD_UB>
10.826

$$$$
