CHEMBL2071440
 OpenBabel10172500293D

 21 21  0  0  0  0  0  0  0  0999 V2000
  145.5360  137.5430  150.9640 C   0  0  0  0  0  2  0  0  0  0  0  0
  145.9620  137.9450  152.3510 C   0  0  0  0  0  0  0  0  0  0  0  0
  145.0690  138.6020  153.1970 C   0  0  0  0  0  3  0  0  0  0  0  0
  145.4440  138.9190  154.5010 C   0  0  0  0  0  3  0  0  0  0  0  0
  146.7180  138.5820  154.9720 C   0  0  0  0  0  0  0  0  0  0  0  0
  147.6360  137.9390  154.1350 C   0  0  0  0  0  0  0  0  0  0  0  0
  147.2420  137.6230  152.8280 C   0  0  0  0  0  3  0  0  0  0  0  0
  147.0250  138.8960  156.2690 O   0  0  0  0  0  0  0  0  0  0  0  0
  147.5430  139.6530  156.4570 H   0  0  0  0  0  0  0  0  0  0  0  0
  148.9170  137.5480  154.4160 O   0  0  0  0  0  0  0  0  0  0  0  0
  149.8050  137.3380  153.3270 C   0  0  0  0  0  1  0  0  0  0  0  0
  146.0230  138.5500  149.9270 C   0  0  0  0  0  2  0  0  0  0  0  0
  144.8670  139.3320  149.3470 C   0  0  0  0  0  0  0  0  0  0  0  0
  144.2460  138.9200  148.3690 O   0  0  0  0  0  0  0  0  0  0  0  0
  144.5250  140.6580  149.9970 C   0  0  0  0  0  2  0  0  0  0  0  0
  145.7810  141.3970  150.4280 C   0  0  0  0  0  2  0  0  0  0  0  0
  145.4700  142.3870  151.5490 C   0  0  0  0  0  2  0  0  0  0  0  0
  146.4850  142.2540  152.6820 C   0  0  0  0  0  2  0  0  0  0  0  0
  147.6560  141.3610  152.2780 C   0  0  0  0  0  2  0  0  0  0  0  0
  148.4850  141.8380  154.6060 C   0  0  0  0  0  1  0  0  0  0  0  0
  148.8780  141.6360  153.1520 C   0  0  0  0  0  2  0  0  0  0  0  0
  1  2  1  0  0  0  0
  2  7  2  0  0  0  0
  2  3  1  0  0  0  0
  3  4  2  0  0  0  0
  4  5  1  0  0  0  0
  5  8  1  0  0  0  0
  6 10  1  0  0  0  0
  6  5  2  0  0  0  0
  7  6  1  0  0  0  0
  8  9  1  0  0  0  0
 11 10  1  0  0  0  0
 12  1  1  0  0  0  0
 13 12  1  0  0  0  0
 13 15  1  0  0  0  0
 14 13  2  0  0  0  0
 15 16  1  0  0  0  0
 16 17  1  0  0  0  0
 17 18  1  0  0  0  0
 19 18  1  0  0  0  0
 19 21  1  0  0  0  0
 21 20  1  0  0  0  0
M  END
>  <MODEL>
1

>  <REMARK>
 VINA RESULT:    -5.652      0.000      0.000
 INTER + INTRA:         -10.979
 INTER:                  -8.751
 INTRA:                  -2.228
 UNBOUND:                -1.858
  Name = CHEMBL2071440
  13 active torsions:
  status: ('A' for Active; 'I' for Inactive)
    1  A    between atoms: C_1  and  C_2
    2  A    between atoms: C_2  and  C_3
    3  A    between atoms: C_3  and  C_4
    4  A    between atoms: C_4  and  C_5
    5  A    between atoms: C_5  and  C_6
    6  A    between atoms: C_6  and  C_7
    7  A    between atoms: C_7  and  C_8
    8  A    between atoms: C_8  and  C_10
    9  A    between atoms: C_10  and  C_11
   10  A    between atoms: C_11  and  C_12
   11  A    between atoms: C_15  and  O_16
   12  A    between atoms: C_17  and  O_18
   13  A    between atoms: O_18  and  C_19
                            x       y       z     vdW  Elec       q    Type
                         _______ _______ _______ _____ _____    ______ ____

>  <TORSDO>
F 11

>  <SCORE>
-5.652

>  <RMSD_LB>
0.000

>  <RMSD_UB>
0.000

$$$$
CHEMBL2071440
 OpenBabel10172500293D

 21 21  0  0  0  0  0  0  0  0999 V2000
  146.7030  137.7600  151.0160 C   0  0  0  0  0  2  0  0  0  0  0  0
  146.7140  138.0130  152.5000 C   0  0  0  0  0  0  0  0  0  0  0  0
  147.7990  137.6030  153.2740 C   0  0  0  0  0  3  0  0  0  0  0  0
  147.8360  137.8910  154.6360 C   0  0  0  0  0  3  0  0  0  0  0  0
  146.7860  138.5930  155.2400 C   0  0  0  0  0  0  0  0  0  0  0  0
  145.6800  138.9990  154.4860 C   0  0  0  0  0  0  0  0  0  0  0  0
  145.6600  138.7050  153.1150 C   0  0  0  0  0  3  0  0  0  0  0  0
  146.8850  138.8710  156.5760 O   0  0  0  0  0  0  0  0  0  0  0  0
  147.6810  139.2240  156.9230 H   0  0  0  0  0  0  0  0  0  0  0  0
  144.5660  139.6770  154.9020 O   0  0  0  0  0  0  0  0  0  0  0  0
  143.2940  139.1530  154.5480 C   0  0  0  0  0  1  0  0  0  0  0  0
  146.7880  139.0670  150.2350 C   0  0  0  0  0  2  0  0  0  0  0  0
  145.4120  139.5500  149.8360 C   0  0  0  0  0  0  0  0  0  0  0  0
  144.5900  138.7870  149.3320 O   0  0  0  0  0  0  0  0  0  0  0  0
  145.0970  141.0170  150.0530 C   0  0  0  0  0  2  0  0  0  0  0  0
  146.2600  141.8960  149.6240 C   0  0  0  0  0  2  0  0  0  0  0  0
  146.9030  142.5720  150.8340 C   0  0  0  0  0  2  0  0  0  0  0  0
  148.4190  142.4010  150.8040 C   0  0  0  0  0  2  0  0  0  0  0  0
  148.9150  141.6190  152.0190 C   0  0  0  0  0  2  0  0  0  0  0  0
  148.5350  141.8470  154.4960 C   0  0  0  0  0  1  0  0  0  0  0  0
  147.8790  141.6410  153.1410 C   0  0  0  0  0  2  0  0  0  0  0  0
  1  2  1  0  0  0  0
  2  7  2  0  0  0  0
  2  3  1  0  0  0  0
  3  4  2  0  0  0  0
  4  5  1  0  0  0  0
  5  8  1  0  0  0  0
  6 10  1  0  0  0  0
  6  5  2  0  0  0  0
  7  6  1  0  0  0  0
  8  9  1  0  0  0  0
 11 10  1  0  0  0  0
 12  1  1  0  0  0  0
 13 15  1  0  0  0  0
 13 12  1  0  0  0  0
 14 13  2  0  0  0  0
 16 15  1  0  0  0  0
 16 17  1  0  0  0  0
 18 17  1  0  0  0  0
 18 19  1  0  0  0  0
 19 21  1  0  0  0  0
 21 20  1  0  0  0  0
M  END
>  <MODEL>
2

>  <REMARK>
 VINA RESULT:    -5.547      1.212      2.387
 INTER + INTRA:         -10.810
 INTER:                  -8.978
 INTRA:                  -1.832
 UNBOUND:                -1.858
  Name = CHEMBL2071440
  13 active torsions:
  status: ('A' for Active; 'I' for Inactive)
    1  A    between atoms: C_1  and  C_2
    2  A    between atoms: C_2  and  C_3
    3  A    between atoms: C_3  and  C_4
    4  A    between atoms: C_4  and  C_5
    5  A    between atoms: C_5  and  C_6
    6  A    between atoms: C_6  and  C_7
    7  A    between atoms: C_7  and  C_8
    8  A    between atoms: C_8  and  C_10
    9  A    between atoms: C_10  and  C_11
   10  A    between atoms: C_11  and  C_12
   11  A    between atoms: C_15  and  O_16
   12  A    between atoms: C_17  and  O_18
   13  A    between atoms: O_18  and  C_19
                            x       y       z     vdW  Elec       q    Type
                         _______ _______ _______ _____ _____    ______ ____

>  <TORSDO>
F 11

>  <SCORE>
-5.547

>  <RMSD_LB>
1.212

>  <RMSD_UB>
2.387

$$$$
CHEMBL2071440
 OpenBabel10172500293D

 21 21  0  0  0  0  0  0  0  0999 V2000
  132.8140  135.0660  151.6250 C   0  0  0  0  0  2  0  0  0  0  0  0
  133.1770  134.5440  150.2610 C   0  0  0  0  0  0  0  0  0  0  0  0
  133.6890  133.2550  150.1150 C   0  0  0  0  0  3  0  0  0  0  0  0
  133.9670  132.7510  148.8470 C   0  0  0  0  0  3  0  0  0  0  0  0
  133.7370  133.5330  147.7090 C   0  0  0  0  0  0  0  0  0  0  0  0
  133.2400  134.8350  147.8320 C   0  0  0  0  0  0  0  0  0  0  0  0
  132.9610  135.3250  149.1150 C   0  0  0  0  0  3  0  0  0  0  0  0
  134.0050  132.9790  146.4860 O   0  0  0  0  0  0  0  0  0  0  0  0
  134.8690  133.0300  146.1290 H   0  0  0  0  0  0  0  0  0  0  0  0
  132.9670  135.7410  146.8430 O   0  0  0  0  0  0  0  0  0  0  0  0
  132.5510  137.0430  147.2270 C   0  0  0  0  0  1  0  0  0  0  0  0
  133.7900  134.5620  152.6830 C   0  0  0  0  0  2  0  0  0  0  0  0
  134.5250  135.7130  153.3340 C   0  0  0  0  0  0  0  0  0  0  0  0
  133.9340  136.5270  154.0420 O   0  0  0  0  0  0  0  0  0  0  0  0
  136.0090  135.8410  153.0550 C   0  0  0  0  0  2  0  0  0  0  0  0
  136.2620  136.2390  151.6100 C   0  0  0  0  0  2  0  0  0  0  0  0
  136.8020  135.0570  150.8080 C   0  0  0  0  0  2  0  0  0  0  0  0
  136.7610  135.3560  149.3120 C   0  0  0  0  0  2  0  0  0  0  0  0
  136.2280  136.7610  149.0400 C   0  0  0  0  0  2  0  0  0  0  0  0
  136.5710  135.8440  146.7220 C   0  0  0  0  0  1  0  0  0  0  0  0
  136.2820  137.0850  147.5490 C   0  0  0  0  0  2  0  0  0  0  0  0
  1 12  1  0  0  0  0
  2  1  1  0  0  0  0
  3  2  1  0  0  0  0
  4  3  2  0  0  0  0
  5  6  2  0  0  0  0
  5  4  1  0  0  0  0
  6  7  1  0  0  0  0
  7  2  2  0  0  0  0
  8  5  1  0  0  0  0
  9  8  1  0  0  0  0
 10 11  1  0  0  0  0
 10  6  1  0  0  0  0
 12 13  1  0  0  0  0
 13 14  2  0  0  0  0
 15 13  1  0  0  0  0
 16 15  1  0  0  0  0
 17 16  1  0  0  0  0
 18 17  1  0  0  0  0
 19 18  1  0  0  0  0
 20 21  1  0  0  0  0
 21 19  1  0  0  0  0
M  END
>  <MODEL>
3

>  <REMARK>
 VINA RESULT:    -5.512     11.514     14.083
 INTER + INTRA:         -10.753
 INTER:                  -8.425
 INTRA:                  -2.328
 UNBOUND:                -1.858
  Name = CHEMBL2071440
  13 active torsions:
  status: ('A' for Active; 'I' for Inactive)
    1  A    between atoms: C_1  and  C_2
    2  A    between atoms: C_2  and  C_3
    3  A    between atoms: C_3  and  C_4
    4  A    between atoms: C_4  and  C_5
    5  A    between atoms: C_5  and  C_6
    6  A    between atoms: C_6  and  C_7
    7  A    between atoms: C_7  and  C_8
    8  A    between atoms: C_8  and  C_10
    9  A    between atoms: C_10  and  C_11
   10  A    between atoms: C_11  and  C_12
   11  A    between atoms: C_15  and  O_16
   12  A    between atoms: C_17  and  O_18
   13  A    between atoms: O_18  and  C_19
                            x       y       z     vdW  Elec       q    Type
                         _______ _______ _______ _____ _____    ______ ____

>  <TORSDO>
F 11

>  <SCORE>
-5.512

>  <RMSD_LB>
11.514

>  <RMSD_UB>
14.083

$$$$
CHEMBL2071440
 OpenBabel10172500293D

 21 21  0  0  0  0  0  0  0  0999 V2000
  144.1790  137.3650  152.5250 C   0  0  0  0  0  2  0  0  0  0  0  0
  142.7100  137.6430  152.6930 C   0  0  0  0  0  0  0  0  0  0  0  0
  141.8270  137.4150  151.6370 C   0  0  0  0  0  3  0  0  0  0  0  0
  140.4600  137.6140  151.8120 C   0  0  0  0  0  3  0  0  0  0  0  0
  139.9600  138.0450  153.0460 C   0  0  0  0  0  0  0  0  0  0  0  0
  140.8280  138.2970  154.1130 C   0  0  0  0  0  0  0  0  0  0  0  0
  142.2010  138.0870  153.9230 C   0  0  0  0  0  3  0  0  0  0  0  0
  138.6060  138.2010  153.1700 O   0  0  0  0  0  0  0  0  0  0  0  0
  138.0800  138.3470  152.4080 H   0  0  0  0  0  0  0  0  0  0  0  0
  140.5250  138.7310  155.3760 O   0  0  0  0  0  0  0  0  0  0  0  0
  140.3240  137.7540  156.3870 C   0  0  0  0  0  1  0  0  0  0  0  0
  144.8330  137.0400  153.8650 C   0  0  0  0  0  2  0  0  0  0  0  0
  145.9730  137.9890  154.1560 C   0  0  0  0  0  0  0  0  0  0  0  0
  146.4810  138.0500  155.2750 O   0  0  0  0  0  0  0  0  0  0  0  0
  146.4430  138.8840  153.0260 C   0  0  0  0  0  2  0  0  0  0  0  0
  147.7520  139.5710  153.3810 C   0  0  0  0  0  2  0  0  0  0  0  0
  147.5110  141.0270  153.7730 C   0  0  0  0  0  2  0  0  0  0  0  0
  147.3830  141.9050  152.5320 C   0  0  0  0  0  2  0  0  0  0  0  0
  145.9640  142.4490  152.3780 C   0  0  0  0  0  2  0  0  0  0  0  0
  146.7410  142.8090  150.0120 C   0  0  0  0  0  1  0  0  0  0  0  0
  145.5550  142.4960  150.9080 C   0  0  0  0  0  2  0  0  0  0  0  0
  1  2  1  0  0  0  0
  1 12  1  0  0  0  0
  2  7  1  0  0  0  0
  3  4  1  0  0  0  0
  3  2  2  0  0  0  0
  4  5  2  0  0  0  0
  5  8  1  0  0  0  0
  5  6  1  0  0  0  0
  6 10  1  0  0  0  0
  7  6  2  0  0  0  0
  9  8  1  0  0  0  0
 10 11  1  0  0  0  0
 12 13  1  0  0  0  0
 13 14  2  0  0  0  0
 15 16  1  0  0  0  0
 15 13  1  0  0  0  0
 16 17  1  0  0  0  0
 18 17  1  0  0  0  0
 19 18  1  0  0  0  0
 20 21  1  0  0  0  0
 21 19  1  0  0  0  0
M  END
>  <MODEL>
4

>  <REMARK>
 VINA RESULT:    -5.485      3.532      5.603
 INTER + INTRA:         -10.711
 INTER:                  -9.811
 INTRA:                  -0.900
 UNBOUND:                -1.858
  Name = CHEMBL2071440
  13 active torsions:
  status: ('A' for Active; 'I' for Inactive)
    1  A    between atoms: C_1  and  C_2
    2  A    between atoms: C_2  and  C_3
    3  A    between atoms: C_3  and  C_4
    4  A    between atoms: C_4  and  C_5
    5  A    between atoms: C_5  and  C_6
    6  A    between atoms: C_6  and  C_7
    7  A    between atoms: C_7  and  C_8
    8  A    between atoms: C_8  and  C_10
    9  A    between atoms: C_10  and  C_11
   10  A    between atoms: C_11  and  C_12
   11  A    between atoms: C_15  and  O_16
   12  A    between atoms: C_17  and  O_18
   13  A    between atoms: O_18  and  C_19
                            x       y       z     vdW  Elec       q    Type
                         _______ _______ _______ _____ _____    ______ ____

>  <TORSDO>
F 11

>  <SCORE>
-5.485

>  <RMSD_LB>
3.532

>  <RMSD_UB>
5.603

$$$$
CHEMBL2071440
 OpenBabel10172500293D

 21 21  0  0  0  0  0  0  0  0999 V2000
  133.6730  133.2490  147.2040 C   0  0  0  0  0  2  0  0  0  0  0  0
  133.6750  133.5980  148.6680 C   0  0  0  0  0  0  0  0  0  0  0  0
  132.4940  133.5350  149.4060 C   0  0  0  0  0  3  0  0  0  0  0  0
  132.5080  133.7980  150.7740 C   0  0  0  0  0  3  0  0  0  0  0  0
  133.7060  134.1280  151.4180 C   0  0  0  0  0  0  0  0  0  0  0  0
  134.9000  134.2140  150.6940 C   0  0  0  0  0  0  0  0  0  0  0  0
  134.8690  133.9410  149.3200 C   0  0  0  0  0  3  0  0  0  0  0  0
  133.6670  134.3530  152.7680 O   0  0  0  0  0  0  0  0  0  0  0  0
  133.8790  133.6630  153.3630 H   0  0  0  0  0  0  0  0  0  0  0  0
  136.1520  134.5310  151.1470 O   0  0  0  0  0  0  0  0  0  0  0  0
  136.9360  135.4260  150.3720 C   0  0  0  0  0  1  0  0  0  0  0  0
  135.0920  133.0270  146.6890 C   0  0  0  0  0  2  0  0  0  0  0  0
  135.1580  133.2030  145.1890 C   0  0  0  0  0  0  0  0  0  0  0  0
  134.6670  132.3700  144.4280 O   0  0  0  0  0  0  0  0  0  0  0  0
  135.8780  134.4270  144.6590 C   0  0  0  0  0  2  0  0  0  0  0  0
  135.1330  135.7000  145.0260 C   0  0  0  0  0  2  0  0  0  0  0  0
  135.8640  136.4550  146.1360 C   0  0  0  0  0  2  0  0  0  0  0  0
  134.8710  137.0250  147.1440 C   0  0  0  0  0  2  0  0  0  0  0  0
  133.5050  137.2680  146.5050 C   0  0  0  0  0  2  0  0  0  0  0  0
  132.7930  137.1090  148.9130 C   0  0  0  0  0  1  0  0  0  0  0  0
  132.3790  136.8970  147.4670 C   0  0  0  0  0  2  0  0  0  0  0  0
  1  2  1  0  0  0  0
  2  7  2  0  0  0  0
  2  3  1  0  0  0  0
  3  4  2  0  0  0  0
  4  5  1  0  0  0  0
  5  8  1  0  0  0  0
  6 10  1  0  0  0  0
  6  5  2  0  0  0  0
  7  6  1  0  0  0  0
  8  9  1  0  0  0  0
 11 10  1  0  0  0  0
 12  1  1  0  0  0  0
 13 12  1  0  0  0  0
 14 13  2  0  0  0  0
 15 16  1  0  0  0  0
 15 13  1  0  0  0  0
 16 17  1  0  0  0  0
 17 18  1  0  0  0  0
 19 18  1  0  0  0  0
 19 21  1  0  0  0  0
 21 20  1  0  0  0  0
M  END
>  <MODEL>
5

>  <REMARK>
 VINA RESULT:    -5.363     11.805     13.978
 INTER + INTRA:         -10.514
 INTER:                  -8.440
 INTRA:                  -2.074
 UNBOUND:                -1.858
  Name = CHEMBL2071440
  13 active torsions:
  status: ('A' for Active; 'I' for Inactive)
    1  A    between atoms: C_1  and  C_2
    2  A    between atoms: C_2  and  C_3
    3  A    between atoms: C_3  and  C_4
    4  A    between atoms: C_4  and  C_5
    5  A    between atoms: C_5  and  C_6
    6  A    between atoms: C_6  and  C_7
    7  A    between atoms: C_7  and  C_8
    8  A    between atoms: C_8  and  C_10
    9  A    between atoms: C_10  and  C_11
   10  A    between atoms: C_11  and  C_12
   11  A    between atoms: C_15  and  O_16
   12  A    between atoms: C_17  and  O_18
   13  A    between atoms: O_18  and  C_19
                            x       y       z     vdW  Elec       q    Type
                         _______ _______ _______ _____ _____    ______ ____

>  <TORSDO>
F 11

>  <SCORE>
-5.363

>  <RMSD_LB>
11.805

>  <RMSD_UB>
13.978

$$$$
CHEMBL2071440
 OpenBabel10172500293D

 21 21  0  0  0  0  0  0  0  0999 V2000
  144.9230  141.5050  150.9550 C   0  0  0  0  0  2  0  0  0  0  0  0
  146.0100  141.3260  151.9810 C   0  0  0  0  0  0  0  0  0  0  0  0
  146.1480  142.2410  153.0250 C   0  0  0  0  0  3  0  0  0  0  0  0
  147.1150  142.0410  154.0080 C   0  0  0  0  0  3  0  0  0  0  0  0
  147.9540  140.9220  153.9570 C   0  0  0  0  0  0  0  0  0  0  0  0
  147.8440  140.0000  152.9110 C   0  0  0  0  0  0  0  0  0  0  0  0
  146.8630  140.2140  151.9320 C   0  0  0  0  0  3  0  0  0  0  0  0
  148.8700  140.7620  154.9620 O   0  0  0  0  0  0  0  0  0  0  0  0
  149.7650  140.5820  154.7550 H   0  0  0  0  0  0  0  0  0  0  0  0
  148.5790  138.8660  152.6920 O   0  0  0  0  0  0  0  0  0  0  0  0
  148.2750  137.7140  153.4660 C   0  0  0  0  0  1  0  0  0  0  0  0
  144.9060  140.3460  149.9650 C   0  0  0  0  0  2  0  0  0  0  0  0
  143.4910  139.8850  149.6960 C   0  0  0  0  0  0  0  0  0  0  0  0
  143.1160  139.6090  148.5570 O   0  0  0  0  0  0  0  0  0  0  0  0
  142.5450  139.8050  150.8780 C   0  0  0  0  0  2  0  0  0  0  0  0
  141.5650  138.6560  150.7170 C   0  0  0  0  0  2  0  0  0  0  0  0
  142.1000  137.3890  151.3820 C   0  0  0  0  0  2  0  0  0  0  0  0
  142.5150  137.6700  152.8230 C   0  0  0  0  0  2  0  0  0  0  0  0
  143.9500  137.2190  153.0870 C   0  0  0  0  0  2  0  0  0  0  0  0
  143.7790  139.3760  154.3720 C   0  0  0  0  0  1  0  0  0  0  0  0
  144.6940  138.2400  153.9450 C   0  0  0  0  0  2  0  0  0  0  0  0
  1  2  1  0  0  0  0
  2  3  1  0  0  0  0
  3  4  2  0  0  0  0
  5  4  1  0  0  0  0
  5  8  1  0  0  0  0
  6  5  2  0  0  0  0
  7  2  2  0  0  0  0
  7  6  1  0  0  0  0
  9  8  1  0  0  0  0
 10  6  1  0  0  0  0
 10 11  1  0  0  0  0
 12  1  1  0  0  0  0
 13 12  1  0  0  0  0
 13 15  1  0  0  0  0
 14 13  2  0  0  0  0
 16 15  1  0  0  0  0
 16 17  1  0  0  0  0
 17 18  1  0  0  0  0
 18 19  1  0  0  0  0
 19 21  1  0  0  0  0
 21 20  1  0  0  0  0
M  END
>  <MODEL>
6

>  <REMARK>
 VINA RESULT:    -5.355      1.927      3.836
 INTER + INTRA:         -10.500
 INTER:                  -8.642
 INTRA:                  -1.858
 UNBOUND:                -1.858
  Name = CHEMBL2071440
  13 active torsions:
  status: ('A' for Active; 'I' for Inactive)
    1  A    between atoms: C_1  and  C_2
    2  A    between atoms: C_2  and  C_3
    3  A    between atoms: C_3  and  C_4
    4  A    between atoms: C_4  and  C_5
    5  A    between atoms: C_5  and  C_6
    6  A    between atoms: C_6  and  C_7
    7  A    between atoms: C_7  and  C_8
    8  A    between atoms: C_8  and  C_10
    9  A    between atoms: C_10  and  C_11
   10  A    between atoms: C_11  and  C_12
   11  A    between atoms: C_15  and  O_16
   12  A    between atoms: C_17  and  O_18
   13  A    between atoms: O_18  and  C_19
                            x       y       z     vdW  Elec       q    Type
                         _______ _______ _______ _____ _____    ______ ____

>  <TORSDO>
F 11

>  <SCORE>
-5.355

>  <RMSD_LB>
1.927

>  <RMSD_UB>
3.836

$$$$
CHEMBL2071440
 OpenBabel10172500293D

 21 21  0  0  0  0  0  0  0  0999 V2000
  144.4220  138.8060  154.2110 C   0  0  0  0  0  2  0  0  0  0  0  0
  145.8990  138.6200  153.9860 C   0  0  0  0  0  0  0  0  0  0  0  0
  146.3690  137.4960  153.3050 C   0  0  0  0  0  3  0  0  0  0  0  0
  147.7300  137.3550  153.0440 C   0  0  0  0  0  3  0  0  0  0  0  0
  148.6360  138.3360  153.4620 C   0  0  0  0  0  0  0  0  0  0  0  0
  148.1890  139.4620  154.1610 C   0  0  0  0  0  0  0  0  0  0  0  0
  146.8160  139.5920  154.4110 C   0  0  0  0  0  3  0  0  0  0  0  0
  149.9580  138.1580  153.1570 O   0  0  0  0  0  0  0  0  0  0  0  0
  150.3150  138.5410  152.3800 H   0  0  0  0  0  0  0  0  0  0  0  0
  148.9230  140.5080  154.6530 O   0  0  0  0  0  0  0  0  0  0  0  0
  148.5590  141.8230  154.2590 C   0  0  0  0  0  1  0  0  0  0  0  0
  143.6410  137.5680  153.7840 C   0  0  0  0  0  2  0  0  0  0  0  0
  142.4140  137.9500  152.9870 C   0  0  0  0  0  0  0  0  0  0  0  0
  141.4610  138.5190  153.5170 O   0  0  0  0  0  0  0  0  0  0  0  0
  142.3920  137.5770  151.5170 C   0  0  0  0  0  2  0  0  0  0  0  0
  143.5530  138.2150  150.7740 C   0  0  0  0  0  2  0  0  0  0  0  0
  143.4190  139.7370  150.7630 C   0  0  0  0  0  2  0  0  0  0  0  0
  144.5660  140.3740  149.9830 C   0  0  0  0  0  2  0  0  0  0  0  0
  145.9110  140.1110  150.6570 C   0  0  0  0  0  2  0  0  0  0  0  0
  145.7030  142.2720  151.9300 C   0  0  0  0  0  1  0  0  0  0  0  0
  146.5940  141.4230  151.0390 C   0  0  0  0  0  2  0  0  0  0  0  0
  2  1  1  0  0  0  0
  2  7  1  0  0  0  0
  3  2  2  0  0  0  0
  4  3  1  0  0  0  0
  4  5  2  0  0  0  0
  5  6  1  0  0  0  0
  6  7  2  0  0  0  0
  6 10  1  0  0  0  0
  8  5  1  0  0  0  0
  9  8  1  0  0  0  0
 11 10  1  0  0  0  0
 12  1  1  0  0  0  0
 13 14  2  0  0  0  0
 13 12  1  0  0  0  0
 15 13  1  0  0  0  0
 16 15  1  0  0  0  0
 17 16  1  0  0  0  0
 18 19  1  0  0  0  0
 18 17  1  0  0  0  0
 19 21  1  0  0  0  0
 21 20  1  0  0  0  0
M  END
>  <MODEL>
7

>  <REMARK>
 VINA RESULT:    -5.251      2.078      3.617
 INTER + INTRA:         -10.333
 INTER:                  -8.251
 INTRA:                  -2.082
 UNBOUND:                -1.858
  Name = CHEMBL2071440
  13 active torsions:
  status: ('A' for Active; 'I' for Inactive)
    1  A    between atoms: C_1  and  C_2
    2  A    between atoms: C_2  and  C_3
    3  A    between atoms: C_3  and  C_4
    4  A    between atoms: C_4  and  C_5
    5  A    between atoms: C_5  and  C_6
    6  A    between atoms: C_6  and  C_7
    7  A    between atoms: C_7  and  C_8
    8  A    between atoms: C_8  and  C_10
    9  A    between atoms: C_10  and  C_11
   10  A    between atoms: C_11  and  C_12
   11  A    between atoms: C_15  and  O_16
   12  A    between atoms: C_17  and  O_18
   13  A    between atoms: O_18  and  C_19
                            x       y       z     vdW  Elec       q    Type
                         _______ _______ _______ _____ _____    ______ ____

>  <TORSDO>
F 11

>  <SCORE>
-5.251

>  <RMSD_LB>
2.078

>  <RMSD_UB>
3.617

$$$$
CHEMBL2071440
 OpenBabel10172500293D

 21 21  0  0  0  0  0  0  0  0999 V2000
  134.9930  134.3960  151.4530 C   0  0  0  0  0  2  0  0  0  0  0  0
  134.5710  134.0080  150.0620 C   0  0  0  0  0  0  0  0  0  0  0  0
  133.2560  133.6170  149.8100 C   0  0  0  0  0  3  0  0  0  0  0  0
  132.8520  133.3170  148.5110 C   0  0  0  0  0  3  0  0  0  0  0  0
  133.7590  133.4040  147.4490 C   0  0  0  0  0  0  0  0  0  0  0  0
  135.0880  133.7770  147.6810 C   0  0  0  0  0  0  0  0  0  0  0  0
  135.4770  134.0810  148.9930 C   0  0  0  0  0  3  0  0  0  0  0  0
  133.3020  133.1220  146.1900 O   0  0  0  0  0  0  0  0  0  0  0  0
  133.2260  132.2320  145.9090 H   0  0  0  0  0  0  0  0  0  0  0  0
  136.1090  133.9040  146.7780 O   0  0  0  0  0  0  0  0  0  0  0  0
  137.1640  132.9540  146.8260 C   0  0  0  0  0  1  0  0  0  0  0  0
  133.7970  134.8570  152.2810 C   0  0  0  0  0  2  0  0  0  0  0  0
  134.1830  135.0470  153.7300 C   0  0  0  0  0  0  0  0  0  0  0  0
  133.3300  135.1160  154.6140 O   0  0  0  0  0  0  0  0  0  0  0  0
  135.6600  135.1820  154.0490 C   0  0  0  0  0  2  0  0  0  0  0  0
  135.8750  135.5000  155.5190 C   0  0  0  0  0  2  0  0  0  0  0  0
  137.2450  136.1400  155.7400 C   0  0  0  0  0  2  0  0  0  0  0  0
  137.5480  136.2630  157.2300 C   0  0  0  0  0  2  0  0  0  0  0  0
  136.4420  135.6370  158.0770 C   0  0  0  0  0  2  0  0  0  0  0  0
  136.3370  137.8380  159.2920 C   0  0  0  0  0  1  0  0  0  0  0  0
  136.3400  136.3250  159.4360 C   0  0  0  0  0  2  0  0  0  0  0  0
  1 12  1  0  0  0  0
  2  1  1  0  0  0  0
  3  2  1  0  0  0  0
  4  3  2  0  0  0  0
  5  6  2  0  0  0  0
  5  4  1  0  0  0  0
  6  7  1  0  0  0  0
  7  2  2  0  0  0  0
  8  5  1  0  0  0  0
  9  8  1  0  0  0  0
 10 11  1  0  0  0  0
 10  6  1  0  0  0  0
 12 13  1  0  0  0  0
 13 15  1  0  0  0  0
 13 14  2  0  0  0  0
 15 16  1  0  0  0  0
 16 17  1  0  0  0  0
 17 18  1  0  0  0  0
 18 19  1  0  0  0  0
 19 21  1  0  0  0  0
 20 21  1  0  0  0  0
M  END
>  <MODEL>
8

>  <REMARK>
 VINA RESULT:    -5.249     11.280     13.651
 INTER + INTRA:         -10.328
 INTER:                  -9.650
 INTRA:                  -0.678
 UNBOUND:                -1.858
  Name = CHEMBL2071440
  13 active torsions:
  status: ('A' for Active; 'I' for Inactive)
    1  A    between atoms: C_1  and  C_2
    2  A    between atoms: C_2  and  C_3
    3  A    between atoms: C_3  and  C_4
    4  A    between atoms: C_4  and  C_5
    5  A    between atoms: C_5  and  C_6
    6  A    between atoms: C_6  and  C_7
    7  A    between atoms: C_7  and  C_8
    8  A    between atoms: C_8  and  C_10
    9  A    between atoms: C_10  and  C_11
   10  A    between atoms: C_11  and  C_12
   11  A    between atoms: C_15  and  O_16
   12  A    between atoms: C_17  and  O_18
   13  A    between atoms: O_18  and  C_19
                            x       y       z     vdW  Elec       q    Type
                         _______ _______ _______ _____ _____    ______ ____

>  <TORSDO>
F 11

>  <SCORE>
-5.249

>  <RMSD_LB>
11.280

>  <RMSD_UB>
13.651

$$$$
CHEMBL2071440
 OpenBabel10172500293D

 21 21  0  0  0  0  0  0  0  0999 V2000
  142.9570  137.3830  151.9220 C   0  0  0  0  0  2  0  0  0  0  0  0
  141.6610  137.8120  152.5550 C   0  0  0  0  0  0  0  0  0  0  0  0
  141.6630  138.4460  153.7980 C   0  0  0  0  0  3  0  0  0  0  0  0
  140.4680  138.8970  154.3550 C   0  0  0  0  0  3  0  0  0  0  0  0
  139.2580  138.7180  153.6750 C   0  0  0  0  0  0  0  0  0  0  0  0
  139.2310  138.0690  152.4360 C   0  0  0  0  0  0  0  0  0  0  0  0
  140.4420  137.6260  151.8860 C   0  0  0  0  0  3  0  0  0  0  0  0
  138.1180  139.2020  154.2570 O   0  0  0  0  0  0  0  0  0  0  0  0
  138.1100  140.0630  154.6260 H   0  0  0  0  0  0  0  0  0  0  0  0
  138.1520  137.7960  151.6390 O   0  0  0  0  0  0  0  0  0  0  0  0
  138.3540  136.9720  150.5000 C   0  0  0  0  0  1  0  0  0  0  0  0
  142.9330  137.6070  150.4130 C   0  0  0  0  0  2  0  0  0  0  0  0
  143.3670  139.0130  150.0670 C   0  0  0  0  0  0  0  0  0  0  0  0
  142.5580  139.8500  149.6690 O   0  0  0  0  0  0  0  0  0  0  0  0
  144.8410  139.3420  150.2010 C   0  0  0  0  0  2  0  0  0  0  0  0
  145.0800  140.3320  151.3290 C   0  0  0  0  0  2  0  0  0  0  0  0
  145.2140  141.7530  150.7850 C   0  0  0  0  0  2  0  0  0  0  0  0
  146.3610  142.4880  151.4730 C   0  0  0  0  0  2  0  0  0  0  0  0
  146.3570  142.2390  152.9800 C   0  0  0  0  0  2  0  0  0  0  0  0
  148.7490  141.8060  152.3280 C   0  0  0  0  0  1  0  0  0  0  0  0
  147.7500  141.8520  153.4720 C   0  0  0  0  0  2  0  0  0  0  0  0
  1  2  1  0  0  0  0
  2  3  1  0  0  0  0
  3  4  2  0  0  0  0
  5  8  1  0  0  0  0
  5  4  1  0  0  0  0
  6  5  2  0  0  0  0
  7  6  1  0  0  0  0
  7  2  2  0  0  0  0
  8  9  1  0  0  0  0
 10  6  1  0  0  0  0
 11 10  1  0  0  0  0
 12  1  1  0  0  0  0
 13 15  1  0  0  0  0
 13 12  1  0  0  0  0
 14 13  2  0  0  0  0
 15 16  1  0  0  0  0
 17 16  1  0  0  0  0
 17 18  1  0  0  0  0
 18 19  1  0  0  0  0
 19 21  1  0  0  0  0
 20 21  1  0  0  0  0
M  END
>  <MODEL>
9

>  <REMARK>
 VINA RESULT:    -5.190      4.126      5.580
 INTER + INTRA:         -10.234
 INTER:                  -9.234
 INTRA:                  -1.000
 UNBOUND:                -1.858
  Name = CHEMBL2071440
  13 active torsions:
  status: ('A' for Active; 'I' for Inactive)
    1  A    between atoms: C_1  and  C_2
    2  A    between atoms: C_2  and  C_3
    3  A    between atoms: C_3  and  C_4
    4  A    between atoms: C_4  and  C_5
    5  A    between atoms: C_5  and  C_6
    6  A    between atoms: C_6  and  C_7
    7  A    between atoms: C_7  and  C_8
    8  A    between atoms: C_8  and  C_10
    9  A    between atoms: C_10  and  C_11
   10  A    between atoms: C_11  and  C_12
   11  A    between atoms: C_15  and  O_16
   12  A    between atoms: C_17  and  O_18
   13  A    between atoms: O_18  and  C_19
                            x       y       z     vdW  Elec       q    Type
                         _______ _______ _______ _____ _____    ______ ____

>  <TORSDO>
F 11

>  <SCORE>
-5.190

>  <RMSD_LB>
4.126

>  <RMSD_UB>
5.580

$$$$
