CHEMBL5423911
 OpenBabel10162523403D

 23 24  0  0  0  0  0  0  0  0999 V2000
  133.4090  134.3260  152.3210 N   0  0  0  0  0  0  0  0  0  0  0  0
  133.9630  135.0650  153.3400 C   0  0  0  0  0  0  0  0  0  0  0  0
  133.9500  136.2920  153.3710 O   0  0  0  0  0  0  0  0  0  0  0  0
  133.4200  133.3430  152.3840 H   0  0  0  0  0  0  0  0  0  0  0  0
  132.8100  134.9460  151.1600 C   0  0  0  0  0  2  0  0  0  0  0  0
  135.2730  133.9680  148.4050 C   0  0  0  0  0  0  0  0  0  0  0  0
  134.7340  134.5230  149.5710 C   0  0  0  0  0  3  0  0  0  0  0  0
  133.3670  134.3850  149.8750 C   0  0  0  0  0  0  0  0  0  0  0  0
  132.5410  133.6770  148.9910 C   0  0  0  0  0  3  0  0  0  0  0  0
  133.0690  133.1160  147.8280 C   0  0  0  0  0  3  0  0  0  0  0  0
  134.4250  133.2620  147.5420 C   0  0  0  0  0  0  0  0  0  0  0  0
  137.4020  135.0100  148.6860 C   0  0  0  0  0  1  0  0  0  0  0  0
  136.5890  134.0450  148.0320 O   0  0  0  0  0  0  0  0  0  0  0  0
  134.9430  132.7040  146.4020 O   0  0  0  0  0  0  0  0  0  0  0  0
  135.3780  133.2430  145.7720 H   0  0  0  0  0  0  0  0  0  0  0  0
  134.5600  134.2390  154.4580 C   0  0  0  0  0  2  0  0  0  0  0  0
  134.9310  135.1120  155.6580 C   0  0  0  0  0  2  0  0  0  0  0  0
  134.4670  134.4950  156.9810 C   0  0  0  0  0  2  0  0  0  0  0  0
  135.1050  135.1570  158.1660 C   0  0  0  0  0  0  0  0  0  0  0  0
  136.4030  135.6110  158.2870 C   0  0  0  0  0  3  0  0  0  0  0  0
  136.6450  136.2230  159.5500 C   0  0  0  0  0  3  0  0  0  0  0  0
  135.5270  136.2090  160.3520 C   0  0  0  0  0  3  0  0  0  0  0  0
  134.1960  135.4600  159.5840 S   0  0  0  0  0  0  0  0  0  0  0  0
  1  4  1  0  0  0  0
  1  2  1  0  0  0  0
  2  3  2  0  0  0  0
  2 16  1  0  0  0  0
  5  1  1  0  0  0  0
  6  7  1  0  0  0  0
  7  8  2  0  0  0  0
  8  5  1  0  0  0  0
  9  8  1  0  0  0  0
 10  9  2  0  0  0  0
 11 10  1  0  0  0  0
 11  6  2  0  0  0  0
 13  6  1  0  0  0  0
 13 12  1  0  0  0  0
 14 11  1  0  0  0  0
 15 14  1  0  0  0  0
 16 17  1  0  0  0  0
 17 18  1  0  0  0  0
 18 19  1  0  0  0  0
 19 20  2  0  0  0  0
 19 23  1  0  0  0  0
 20 21  1  0  0  0  0
 21 22  2  0  0  0  0
 23 22  1  0  0  0  0
M  END
>  <MODEL>
1

>  <REMARK>
 VINA RESULT:    -6.499      0.000      0.000
 INTER + INTRA:         -10.027
 INTER:                  -9.559
 INTRA:                  -0.468
 UNBOUND:                -0.679
  Name = CHEMBL5423911
  9 active torsions:
  status: ('A' for Active; 'I' for Inactive)
    1  A    between atoms: C_1  and  O_2
    2  A    between atoms: O_2  and  C_3
    3  A    between atoms: C_5  and  C_6
    4  A    between atoms: C_6  and  N_7
    5  A    between atoms: C_8  and  C_10
    6  A    between atoms: C_10  and  C_11
    7  A    between atoms: C_11  and  C_12
    8  A    between atoms: C_12  and  C_13
    9  A    between atoms: C_20  and  O_21
                            x       y       z     vdW  Elec       q    Type
                         _______ _______ _______ _____ _____    ______ ____

>  <TORSDO>
F 8

>  <SCORE>
-6.499

>  <RMSD_LB>
0.000

>  <RMSD_UB>
0.000

$$$$
CHEMBL5423911
 OpenBabel10162523403D

 23 24  0  0  0  0  0  0  0  0999 V2000
  134.4460  134.3510  152.5620 N   0  0  0  0  0  0  0  0  0  0  0  0
  134.8280  135.5380  153.1420 C   0  0  0  0  0  0  0  0  0  0  0  0
  134.1120  136.5340  153.1820 O   0  0  0  0  0  0  0  0  0  0  0  0
  135.0590  133.5810  152.6050 H   0  0  0  0  0  0  0  0  0  0  0  0
  133.1750  134.1990  151.8910 C   0  0  0  0  0  2  0  0  0  0  0  0
  133.2040  134.7280  148.1050 C   0  0  0  0  0  0  0  0  0  0  0  0
  133.0060  134.9340  149.4750 C   0  0  0  0  0  3  0  0  0  0  0  0
  133.3470  133.9430  150.4150 C   0  0  0  0  0  0  0  0  0  0  0  0
  133.8960  132.7350  149.9600 C   0  0  0  0  0  3  0  0  0  0  0  0
  134.1010  132.5210  148.5980 C   0  0  0  0  0  3  0  0  0  0  0  0
  133.7570  133.5130  147.6800 C   0  0  0  0  0  0  0  0  0  0  0  0
  132.5870  136.9590  147.5250 C   0  0  0  0  0  1  0  0  0  0  0  0
  132.9090  135.6350  147.1220 O   0  0  0  0  0  0  0  0  0  0  0  0
  133.9660  133.3040  146.3420 O   0  0  0  0  0  0  0  0  0  0  0  0
  134.1640  134.0260  145.7800 H   0  0  0  0  0  0  0  0  0  0  0  0
  136.2010  135.5100  153.7770 C   0  0  0  0  0  2  0  0  0  0  0  0
  136.2640  136.4170  155.0080 C   0  0  0  0  0  2  0  0  0  0  0  0
  137.1090  135.8040  156.1290 C   0  0  0  0  0  2  0  0  0  0  0  0
  136.4220  135.8820  157.4600 C   0  0  0  0  0  0  0  0  0  0  0  0
  135.4760  135.0220  157.9790 C   0  0  0  0  0  3  0  0  0  0  0  0
  135.0740  135.3910  159.2940 C   0  0  0  0  0  3  0  0  0  0  0  0
  135.7200  136.5250  159.7300 C   0  0  0  0  0  3  0  0  0  0  0  0
  136.8040  137.1380  158.5600 S   0  0  0  0  0  0  0  0  0  0  0  0
  1  4  1  0  0  0  0
  1  2  1  0  0  0  0
  2  3  2  0  0  0  0
  2 16  1  0  0  0  0
  5  1  1  0  0  0  0
  6  7  1  0  0  0  0
  7  8  2  0  0  0  0
  8  5  1  0  0  0  0
  9  8  1  0  0  0  0
 10  9  2  0  0  0  0
 11  6  2  0  0  0  0
 11 10  1  0  0  0  0
 13 12  1  0  0  0  0
 13  6  1  0  0  0  0
 14 11  1  0  0  0  0
 15 14  1  0  0  0  0
 16 17  1  0  0  0  0
 17 18  1  0  0  0  0
 18 19  1  0  0  0  0
 19 20  2  0  0  0  0
 19 23  1  0  0  0  0
 20 21  1  0  0  0  0
 21 22  2  0  0  0  0
 23 22  1  0  0  0  0
M  END
>  <MODEL>
2

>  <REMARK>
 VINA RESULT:    -6.350      1.784      2.198
 INTER + INTRA:          -9.813
 INTER:                  -9.331
 INTRA:                  -0.482
 UNBOUND:                -0.679
  Name = CHEMBL5423911
  9 active torsions:
  status: ('A' for Active; 'I' for Inactive)
    1  A    between atoms: C_1  and  O_2
    2  A    between atoms: O_2  and  C_3
    3  A    between atoms: C_5  and  C_6
    4  A    between atoms: C_6  and  N_7
    5  A    between atoms: C_8  and  C_10
    6  A    between atoms: C_10  and  C_11
    7  A    between atoms: C_11  and  C_12
    8  A    between atoms: C_12  and  C_13
    9  A    between atoms: C_20  and  O_21
                            x       y       z     vdW  Elec       q    Type
                         _______ _______ _______ _____ _____    ______ ____

>  <TORSDO>
F 8

>  <SCORE>
-6.350

>  <RMSD_LB>
1.784

>  <RMSD_UB>
2.198

$$$$
CHEMBL5423911
 OpenBabel10162523403D

 23 24  0  0  0  0  0  0  0  0999 V2000
  138.0520  138.0300  154.5200 N   0  0  0  0  0  0  0  0  0  0  0  0
  139.0970  138.8280  154.1170 C   0  0  0  0  0  0  0  0  0  0  0  0
  139.8050  139.4600  154.8940 O   0  0  0  0  0  0  0  0  0  0  0  0
  137.5530  137.5190  153.8410 H   0  0  0  0  0  0  0  0  0  0  0  0
  137.6630  137.9170  155.9080 C   0  0  0  0  0  2  0  0  0  0  0  0
  135.4330  135.3440  157.6450 C   0  0  0  0  0  0  0  0  0  0  0  0
  136.3770  136.3530  157.4270 C   0  0  0  0  0  3  0  0  0  0  0  0
  136.6800  136.7940  156.1250 C   0  0  0  0  0  0  0  0  0  0  0  0
  136.0170  136.2080  155.0370 C   0  0  0  0  0  3  0  0  0  0  0  0
  135.0720  135.2040  155.2440 C   0  0  0  0  0  3  0  0  0  0  0  0
  134.7840  134.7790  156.5400 C   0  0  0  0  0  0  0  0  0  0  0  0
  134.2830  135.6980  159.7070 C   0  0  0  0  0  1  0  0  0  0  0  0
  135.0710  134.8570  158.8740 O   0  0  0  0  0  0  0  0  0  0  0  0
  133.8490  133.7970  156.7420 O   0  0  0  0  0  0  0  0  0  0  0  0
  133.9870  133.1480  157.4030 H   0  0  0  0  0  0  0  0  0  0  0  0
  139.3380  138.8340  152.6230 C   0  0  0  0  0  2  0  0  0  0  0  0
  138.8440  137.5400  151.9750 C   0  0  0  0  0  2  0  0  0  0  0  0
  137.9180  137.8110  150.7850 C   0  0  0  0  0  2  0  0  0  0  0  0
  136.9120  136.7170  150.5920 C   0  0  0  0  0  0  0  0  0  0  0  0
  136.5080  135.7640  151.5060 C   0  0  0  0  0  3  0  0  0  0  0  0
  135.5010  134.9050  150.9820 C   0  0  0  0  0  3  0  0  0  0  0  0
  135.1760  135.2250  149.6840 C   0  0  0  0  0  3  0  0  0  0  0  0
  136.0820  136.5540  149.1040 S   0  0  0  0  0  0  0  0  0  0  0  0
  1  5  1  0  0  0  0
  2  1  1  0  0  0  0
  2  3  2  0  0  0  0
  4  1  1  0  0  0  0
  5  8  1  0  0  0  0
  6 13  1  0  0  0  0
  7  6  1  0  0  0  0
  8  7  2  0  0  0  0
  9 10  2  0  0  0  0
  9  8  1  0  0  0  0
 10 11  1  0  0  0  0
 11 14  1  0  0  0  0
 11  6  2  0  0  0  0
 13 12  1  0  0  0  0
 14 15  1  0  0  0  0
 16  2  1  0  0  0  0
 17 16  1  0  0  0  0
 18 17  1  0  0  0  0
 19 18  1  0  0  0  0
 19 20  2  0  0  0  0
 21 20  1  0  0  0  0
 22 21  2  0  0  0  0
 23 22  1  0  0  0  0
 23 19  1  0  0  0  0
M  END
>  <MODEL>
3

>  <REMARK>
 VINA RESULT:    -6.323      4.542      8.495
 INTER + INTRA:          -9.773
 INTER:                  -8.816
 INTRA:                  -0.957
 UNBOUND:                -0.679
  Name = CHEMBL5423911
  9 active torsions:
  status: ('A' for Active; 'I' for Inactive)
    1  A    between atoms: C_1  and  O_2
    2  A    between atoms: O_2  and  C_3
    3  A    between atoms: C_5  and  C_6
    4  A    between atoms: C_6  and  N_7
    5  A    between atoms: C_8  and  C_10
    6  A    between atoms: C_10  and  C_11
    7  A    between atoms: C_11  and  C_12
    8  A    between atoms: C_12  and  C_13
    9  A    between atoms: C_20  and  O_21
                            x       y       z     vdW  Elec       q    Type
                         _______ _______ _______ _____ _____    ______ ____

>  <TORSDO>
F 8

>  <SCORE>
-6.323

>  <RMSD_LB>
4.542

>  <RMSD_UB>
8.495

$$$$
CHEMBL5423911
 OpenBabel10162523403D

 23 24  0  0  0  0  0  0  0  0999 V2000
  133.3380  133.5290  151.5410 N   0  0  0  0  0  0  0  0  0  0  0  0
  133.9200  134.5810  152.2090 C   0  0  0  0  0  0  0  0  0  0  0  0
  133.7120  135.7580  151.9310 O   0  0  0  0  0  0  0  0  0  0  0  0
  133.5200  132.6110  151.8480 H   0  0  0  0  0  0  0  0  0  0  0  0
  132.4680  133.7290  150.4040 C   0  0  0  0  0  2  0  0  0  0  0  0
  133.8650  134.7330  146.9910 C   0  0  0  0  0  0  0  0  0  0  0  0
  133.1310  134.7420  148.1810 C   0  0  0  0  0  3  0  0  0  0  0  0
  133.2270  133.6820  149.1020 C   0  0  0  0  0  0  0  0  0  0  0  0
  134.0780  132.6050  148.8120 C   0  0  0  0  0  3  0  0  0  0  0  0
  134.8180  132.5880  147.6300 C   0  0  0  0  0  3  0  0  0  0  0  0
  134.7100  133.6460  146.7290 C   0  0  0  0  0  0  0  0  0  0  0  0
  134.1410  137.0450  146.4640 C   0  0  0  0  0  1  0  0  0  0  0  0
  133.8400  135.7210  146.0420 O   0  0  0  0  0  0  0  0  0  0  0  0
  135.4430  133.6310  145.5710 O   0  0  0  0  0  0  0  0  0  0  0  0
  135.7260  134.4360  145.1850 H   0  0  0  0  0  0  0  0  0  0  0  0
  134.8160  134.1730  153.3580 C   0  0  0  0  0  2  0  0  0  0  0  0
  135.8020  135.2860  153.7170 C   0  0  0  0  0  2  0  0  0  0  0  0
  135.9450  135.4590  155.2330 C   0  0  0  0  0  2  0  0  0  0  0  0
  137.1600  136.2590  155.5960 C   0  0  0  0  0  0  0  0  0  0  0  0
  137.9450  136.1440  156.7260 C   0  0  0  0  0  3  0  0  0  0  0  0
  139.0440  137.0500  156.7150 C   0  0  0  0  0  3  0  0  0  0  0  0
  139.0550  137.8300  155.5810 C   0  0  0  0  0  3  0  0  0  0  0  0
  137.7480  137.4710  154.5400 S   0  0  0  0  0  0  0  0  0  0  0  0
  1  4  1  0  0  0  0
  1  2  1  0  0  0  0
  2 16  1  0  0  0  0
  3  2  2  0  0  0  0
  5  1  1  0  0  0  0
  6  7  1  0  0  0  0
  7  8  2  0  0  0  0
  8  5  1  0  0  0  0
  9  8  1  0  0  0  0
 10  9  2  0  0  0  0
 11  6  2  0  0  0  0
 11 10  1  0  0  0  0
 13 12  1  0  0  0  0
 13  6  1  0  0  0  0
 14 11  1  0  0  0  0
 15 14  1  0  0  0  0
 16 17  1  0  0  0  0
 17 18  1  0  0  0  0
 18 19  1  0  0  0  0
 19 20  2  0  0  0  0
 21 20  1  0  0  0  0
 22 21  2  0  0  0  0
 23 22  1  0  0  0  0
 23 19  1  0  0  0  0
M  END
>  <MODEL>
4

>  <REMARK>
 VINA RESULT:    -6.296      2.524      2.966
 INTER + INTRA:          -9.735
 INTER:                  -9.207
 INTRA:                  -0.528
 UNBOUND:                -0.679
  Name = CHEMBL5423911
  9 active torsions:
  status: ('A' for Active; 'I' for Inactive)
    1  A    between atoms: C_1  and  O_2
    2  A    between atoms: O_2  and  C_3
    3  A    between atoms: C_5  and  C_6
    4  A    between atoms: C_6  and  N_7
    5  A    between atoms: C_8  and  C_10
    6  A    between atoms: C_10  and  C_11
    7  A    between atoms: C_11  and  C_12
    8  A    between atoms: C_12  and  C_13
    9  A    between atoms: C_20  and  O_21
                            x       y       z     vdW  Elec       q    Type
                         _______ _______ _______ _____ _____    ______ ____

>  <TORSDO>
F 8

>  <SCORE>
-6.296

>  <RMSD_LB>
2.524

>  <RMSD_UB>
2.966

$$$$
CHEMBL5423911
 OpenBabel10162523403D

 23 24  0  0  0  0  0  0  0  0999 V2000
  144.2110  140.5180  151.2600 N   0  0  0  0  0  0  0  0  0  0  0  0
  145.1400  141.2970  150.6110 C   0  0  0  0  0  0  0  0  0  0  0  0
  145.5580  141.0550  149.4830 O   0  0  0  0  0  0  0  0  0  0  0  0
  143.8900  140.7980  152.1480 H   0  0  0  0  0  0  0  0  0  0  0  0
  143.6890  139.3010  150.6780 C   0  0  0  0  0  2  0  0  0  0  0  0
  139.8890  139.6000  150.9640 C   0  0  0  0  0  0  0  0  0  0  0  0
  141.2200  139.8550  150.6170 C   0  0  0  0  0  3  0  0  0  0  0  0
  142.2640  139.0450  151.1010 C   0  0  0  0  0  0  0  0  0  0  0  0
  141.9540  137.9670  151.9430 C   0  0  0  0  0  3  0  0  0  0  0  0
  140.6300  137.7020  152.2920 C   0  0  0  0  0  3  0  0  0  0  0  0
  139.6080  138.5150  151.8040 C   0  0  0  0  0  0  0  0  0  0  0  0
  138.3820  140.1410  149.1930 C   0  0  0  0  0  1  0  0  0  0  0  0
  138.8100  140.3290  150.5350 O   0  0  0  0  0  0  0  0  0  0  0  0
  138.3070  138.2490  152.1420 O   0  0  0  0  0  0  0  0  0  0  0  0
  137.8450  138.8260  152.7170 H   0  0  0  0  0  0  0  0  0  0  0  0
  145.5820  142.5180  151.3870 C   0  0  0  0  0  2  0  0  0  0  0  0
  146.8200  142.2190  152.2370 C   0  0  0  0  0  2  0  0  0  0  0  0
  146.4690  142.0370  153.7170 C   0  0  0  0  0  2  0  0  0  0  0  0
  146.8040  140.6610  154.2100 C   0  0  0  0  0  0  0  0  0  0  0  0
  148.0490  140.1490  154.5130 C   0  0  0  0  0  3  0  0  0  0  0  0
  147.9810  138.8100  154.9920 C   0  0  0  0  0  3  0  0  0  0  0  0
  146.6870  138.3430  155.0320 C   0  0  0  0  0  3  0  0  0  0  0  0
  145.5650  139.5140  154.4930 S   0  0  0  0  0  0  0  0  0  0  0  0
  1  4  1  0  0  0  0
  2  1  1  0  0  0  0
  2 16  1  0  0  0  0
  3  2  2  0  0  0  0
  5  8  1  0  0  0  0
  5  1  1  0  0  0  0
  6 11  1  0  0  0  0
  7  6  2  0  0  0  0
  7  8  1  0  0  0  0
  8  9  2  0  0  0  0
  9 10  1  0  0  0  0
 11 14  1  0  0  0  0
 11 10  2  0  0  0  0
 12 13  1  0  0  0  0
 13  6  1  0  0  0  0
 14 15  1  0  0  0  0
 16 17  1  0  0  0  0
 17 18  1  0  0  0  0
 18 19  1  0  0  0  0
 19 23  1  0  0  0  0
 19 20  2  0  0  0  0
 20 21  1  0  0  0  0
 21 22  2  0  0  0  0
 23 22  1  0  0  0  0
M  END
>  <MODEL>
5

>  <REMARK>
 VINA RESULT:    -6.274      9.716     11.472
 INTER + INTRA:          -9.704
 INTER:                  -9.026
 INTRA:                  -0.679
 UNBOUND:                -0.679
  Name = CHEMBL5423911
  9 active torsions:
  status: ('A' for Active; 'I' for Inactive)
    1  A    between atoms: C_1  and  O_2
    2  A    between atoms: O_2  and  C_3
    3  A    between atoms: C_5  and  C_6
    4  A    between atoms: C_6  and  N_7
    5  A    between atoms: C_8  and  C_10
    6  A    between atoms: C_10  and  C_11
    7  A    between atoms: C_11  and  C_12
    8  A    between atoms: C_12  and  C_13
    9  A    between atoms: C_20  and  O_21
                            x       y       z     vdW  Elec       q    Type
                         _______ _______ _______ _____ _____    ______ ____

>  <TORSDO>
F 8

>  <SCORE>
-6.274

>  <RMSD_LB>
9.716

>  <RMSD_UB>
11.472

$$$$
CHEMBL5423911
 OpenBabel10162523403D

 23 24  0  0  0  0  0  0  0  0999 V2000
  138.8420  136.9650  150.5480 N   0  0  0  0  0  0  0  0  0  0  0  0
  137.7160  137.6170  150.1020 C   0  0  0  0  0  0  0  0  0  0  0  0
  137.7180  138.7810  149.7140 O   0  0  0  0  0  0  0  0  0  0  0  0
  138.7720  136.0160  150.8040 H   0  0  0  0  0  0  0  0  0  0  0  0
  140.1230  137.6260  150.6510 C   0  0  0  0  0  2  0  0  0  0  0  0
  139.8430  138.5540  154.3490 C   0  0  0  0  0  0  0  0  0  0  0  0
  139.5220  138.3370  153.0050 C   0  0  0  0  0  3  0  0  0  0  0  0
  140.4960  137.9040  152.0860 C   0  0  0  0  0  0  0  0  0  0  0  0
  141.8060  137.6870  152.5370 C   0  0  0  0  0  3  0  0  0  0  0  0
  142.1370  137.8960  153.8750 C   0  0  0  0  0  3  0  0  0  0  0  0
  141.1590  138.3260  154.7710 C   0  0  0  0  0  0  0  0  0  0  0  0
  137.6970  138.3210  155.3680 C   0  0  0  0  0  1  0  0  0  0  0  0
  138.9610  138.9680  155.3130 O   0  0  0  0  0  0  0  0  0  0  0  0
  141.4840  138.5240  156.0880 O   0  0  0  0  0  0  0  0  0  0  0  0
  140.8500  138.8810  156.6780 H   0  0  0  0  0  0  0  0  0  0  0  0
  136.4660  136.7660  150.0840 C   0  0  0  0  0  2  0  0  0  0  0  0
  136.3420  135.9330  151.3620 C   0  0  0  0  0  2  0  0  0  0  0  0
  136.1480  134.4440  151.0590 C   0  0  0  0  0  2  0  0  0  0  0  0
  134.7820  134.1520  150.5160 C   0  0  0  0  0  0  0  0  0  0  0  0
  133.5810  134.1470  151.1970 C   0  0  0  0  0  3  0  0  0  0  0  0
  132.4770  133.8620  150.3430 C   0  0  0  0  0  3  0  0  0  0  0  0
  132.8740  133.6510  149.0430 C   0  0  0  0  0  3  0  0  0  0  0  0
  134.5660  133.7950  148.8550 S   0  0  0  0  0  0  0  0  0  0  0  0
  1  5  1  0  0  0  0
  1  4  1  0  0  0  0
  2  1  1  0  0  0  0
  3  2  2  0  0  0  0
  5  8  1  0  0  0  0
  6 11  1  0  0  0  0
  6 13  1  0  0  0  0
  7  6  2  0  0  0  0
  8  9  2  0  0  0  0
  8  7  1  0  0  0  0
  9 10  1  0  0  0  0
 10 11  2  0  0  0  0
 11 14  1  0  0  0  0
 13 12  1  0  0  0  0
 14 15  1  0  0  0  0
 16  2  1  0  0  0  0
 16 17  1  0  0  0  0
 18 17  1  0  0  0  0
 19 18  1  0  0  0  0
 19 20  2  0  0  0  0
 21 20  1  0  0  0  0
 22 21  2  0  0  0  0
 23 22  1  0  0  0  0
 23 19  1  0  0  0  0
M  END
>  <MODEL>
6

>  <REMARK>
 VINA RESULT:    -6.236      5.330      8.793
 INTER + INTRA:          -9.648
 INTER:                  -8.969
 INTRA:                  -0.679
 UNBOUND:                -0.679
  Name = CHEMBL5423911
  9 active torsions:
  status: ('A' for Active; 'I' for Inactive)
    1  A    between atoms: C_1  and  O_2
    2  A    between atoms: O_2  and  C_3
    3  A    between atoms: C_5  and  C_6
    4  A    between atoms: C_6  and  N_7
    5  A    between atoms: C_8  and  C_10
    6  A    between atoms: C_10  and  C_11
    7  A    between atoms: C_11  and  C_12
    8  A    between atoms: C_12  and  C_13
    9  A    between atoms: C_20  and  O_21
                            x       y       z     vdW  Elec       q    Type
                         _______ _______ _______ _____ _____    ______ ____

>  <TORSDO>
F 8

>  <SCORE>
-6.236

>  <RMSD_LB>
5.330

>  <RMSD_UB>
8.793

$$$$
CHEMBL5423911
 OpenBabel10162523403D

 23 24  0  0  0  0  0  0  0  0999 V2000
  138.4180  137.6120  154.6980 N   0  0  0  0  0  0  0  0  0  0  0  0
  137.3020  137.8510  155.4650 C   0  0  0  0  0  0  0  0  0  0  0  0
  136.8990  138.9760  155.7420 O   0  0  0  0  0  0  0  0  0  0  0  0
  138.6570  136.6810  154.4820 H   0  0  0  0  0  0  0  0  0  0  0  0
  139.2510  138.6830  154.1990 C   0  0  0  0  0  2  0  0  0  0  0  0
  141.3620  137.2860  151.3350 C   0  0  0  0  0  0  0  0  0  0  0  0
  140.2690  137.7310  152.0860 C   0  0  0  0  0  3  0  0  0  0  0  0
  140.4290  138.1590  153.4180 C   0  0  0  0  0  0  0  0  0  0  0  0
  141.7100  138.1360  153.9890 C   0  0  0  0  0  3  0  0  0  0  0  0
  142.8070  137.6980  153.2480 C   0  0  0  0  0  3  0  0  0  0  0  0
  142.6300  137.2770  151.9310 C   0  0  0  0  0  0  0  0  0  0  0  0
  140.0170  136.5870  149.4910 C   0  0  0  0  0  1  0  0  0  0  0  0
  141.3020  136.8590  150.0340 O   0  0  0  0  0  0  0  0  0  0  0  0
  143.7100  136.8540  151.2010 O   0  0  0  0  0  0  0  0  0  0  0  0
  144.5420  136.7440  151.6170 H   0  0  0  0  0  0  0  0  0  0  0  0
  136.5720  136.6030  155.9120 C   0  0  0  0  0  2  0  0  0  0  0  0
  135.4040  136.2770  154.9780 C   0  0  0  0  0  2  0  0  0  0  0  0
  135.7570  135.1650  153.9850 C   0  0  0  0  0  2  0  0  0  0  0  0
  135.7360  135.6490  152.5660 C   0  0  0  0  0  0  0  0  0  0  0  0
  136.7360  136.3070  151.8780 C   0  0  0  0  0  3  0  0  0  0  0  0
  136.3740  136.5800  150.5280 C   0  0  0  0  0  3  0  0  0  0  0  0
  135.1080  136.1290  150.2340 C   0  0  0  0  0  3  0  0  0  0  0  0
  134.3620  135.3830  151.5790 S   0  0  0  0  0  0  0  0  0  0  0  0
  1  2  1  0  0  0  0
  2  3  2  0  0  0  0
  2 16  1  0  0  0  0
  4  1  1  0  0  0  0
  5  1  1  0  0  0  0
  6 11  2  0  0  0  0
  6  7  1  0  0  0  0
  7  8  2  0  0  0  0
  8  9  1  0  0  0  0
  8  5  1  0  0  0  0
 10  9  2  0  0  0  0
 11 10  1  0  0  0  0
 12 13  1  0  0  0  0
 13  6  1  0  0  0  0
 14 15  1  0  0  0  0
 14 11  1  0  0  0  0
 17 16  1  0  0  0  0
 18 17  1  0  0  0  0
 19 18  1  0  0  0  0
 20 19  2  0  0  0  0
 21 20  1  0  0  0  0
 22 21  2  0  0  0  0
 22 23  1  0  0  0  0
 23 19  1  0  0  0  0
M  END
>  <MODEL>
7

>  <REMARK>
 VINA RESULT:    -6.226      5.217      7.612
 INTER + INTRA:          -9.635
 INTER:                  -8.686
 INTRA:                  -0.949
 UNBOUND:                -0.679
  Name = CHEMBL5423911
  9 active torsions:
  status: ('A' for Active; 'I' for Inactive)
    1  A    between atoms: C_1  and  O_2
    2  A    between atoms: O_2  and  C_3
    3  A    between atoms: C_5  and  C_6
    4  A    between atoms: C_6  and  N_7
    5  A    between atoms: C_8  and  C_10
    6  A    between atoms: C_10  and  C_11
    7  A    between atoms: C_11  and  C_12
    8  A    between atoms: C_12  and  C_13
    9  A    between atoms: C_20  and  O_21
                            x       y       z     vdW  Elec       q    Type
                         _______ _______ _______ _____ _____    ______ ____

>  <TORSDO>
F 8

>  <SCORE>
-6.226

>  <RMSD_LB>
5.217

>  <RMSD_UB>
7.612

$$$$
CHEMBL5423911
 OpenBabel10162523403D

 23 24  0  0  0  0  0  0  0  0999 V2000
  135.3320  135.7100  154.2130 N   0  0  0  0  0  0  0  0  0  0  0  0
  134.0280  135.3220  154.0130 C   0  0  0  0  0  0  0  0  0  0  0  0
  133.2320  135.1270  154.9260 O   0  0  0  0  0  0  0  0  0  0  0  0
  135.9020  135.8880  153.4290 H   0  0  0  0  0  0  0  0  0  0  0  0
  135.8930  135.8650  155.5370 C   0  0  0  0  0  2  0  0  0  0  0  0
  138.7180  138.1610  154.3720 C   0  0  0  0  0  0  0  0  0  0  0  0
  137.5350  137.4150  154.3940 C   0  0  0  0  0  3  0  0  0  0  0  0
  137.1950  136.6240  155.5080 C   0  0  0  0  0  0  0  0  0  0  0  0
  138.0620  136.5940  156.6090 C   0  0  0  0  0  3  0  0  0  0  0  0
  139.2420  137.3380  156.6000 C   0  0  0  0  0  3  0  0  0  0  0  0
  139.5630  138.1150  155.4880 C   0  0  0  0  0  0  0  0  0  0  0  0
  139.2720  138.3580  152.0590 C   0  0  0  0  0  1  0  0  0  0  0  0
  139.1260  138.9610  153.3370 O   0  0  0  0  0  0  0  0  0  0  0  0
  140.7200  138.8500  155.4840 O   0  0  0  0  0  0  0  0  0  0  0  0
  140.7310  139.7080  155.8590 H   0  0  0  0  0  0  0  0  0  0  0  0
  133.6300  135.1930  152.5590 C   0  0  0  0  0  2  0  0  0  0  0  0
  134.1490  133.8870  151.9530 C   0  0  0  0  0  2  0  0  0  0  0  0
  135.0630  134.1360  150.7500 C   0  0  0  0  0  2  0  0  0  0  0  0
  134.3430  134.8220  149.6280 C   0  0  0  0  0  0  0  0  0  0  0  0
  134.6190  136.0540  149.0710 C   0  0  0  0  0  3  0  0  0  0  0  0
  133.7440  136.3680  147.9920 C   0  0  0  0  0  3  0  0  0  0  0  0
  132.8250  135.3690  147.7680 C   0  0  0  0  0  3  0  0  0  0  0  0
  133.0180  134.0620  148.8530 S   0  0  0  0  0  0  0  0  0  0  0  0
  1  5  1  0  0  0  0
  2  1  1  0  0  0  0
  2  3  2  0  0  0  0
  4  1  1  0  0  0  0
  6  7  2  0  0  0  0
  6 11  1  0  0  0  0
  7  8  1  0  0  0  0
  8  5  1  0  0  0  0
  8  9  2  0  0  0  0
 10  9  1  0  0  0  0
 11 10  2  0  0  0  0
 12 13  1  0  0  0  0
 13  6  1  0  0  0  0
 14 11  1  0  0  0  0
 14 15  1  0  0  0  0
 16  2  1  0  0  0  0
 17 16  1  0  0  0  0
 18 17  1  0  0  0  0
 19 18  1  0  0  0  0
 20 19  2  0  0  0  0
 21 20  1  0  0  0  0
 22 21  2  0  0  0  0
 22 23  1  0  0  0  0
 23 19  1  0  0  0  0
M  END
>  <MODEL>
8

>  <REMARK>
 VINA RESULT:    -6.181      4.150      8.253
 INTER + INTRA:          -9.571
 INTER:                  -8.908
 INTRA:                  -0.663
 UNBOUND:                -0.679
  Name = CHEMBL5423911
  9 active torsions:
  status: ('A' for Active; 'I' for Inactive)
    1  A    between atoms: C_1  and  O_2
    2  A    between atoms: O_2  and  C_3
    3  A    between atoms: C_5  and  C_6
    4  A    between atoms: C_6  and  N_7
    5  A    between atoms: C_8  and  C_10
    6  A    between atoms: C_10  and  C_11
    7  A    between atoms: C_11  and  C_12
    8  A    between atoms: C_12  and  C_13
    9  A    between atoms: C_20  and  O_21
                            x       y       z     vdW  Elec       q    Type
                         _______ _______ _______ _____ _____    ______ ____

>  <TORSDO>
F 8

>  <SCORE>
-6.181

>  <RMSD_LB>
4.150

>  <RMSD_UB>
8.253

$$$$
CHEMBL5423911
 OpenBabel10162523403D

 23 24  0  0  0  0  0  0  0  0999 V2000
  135.5570  134.9600  153.3260 N   0  0  0  0  0  0  0  0  0  0  0  0
  134.8500  134.4080  154.3690 C   0  0  0  0  0  0  0  0  0  0  0  0
  134.2040  133.3690  154.2730 O   0  0  0  0  0  0  0  0  0  0  0  0
  136.0880  135.7740  153.4890 H   0  0  0  0  0  0  0  0  0  0  0  0
  135.5470  134.3830  152.0010 C   0  0  0  0  0  2  0  0  0  0  0  0
  134.7370  136.4940  148.9180 C   0  0  0  0  0  0  0  0  0  0  0  0
  135.4330  135.7290  149.8600 C   0  0  0  0  0  3  0  0  0  0  0  0
  134.7960  135.2480  151.0190 C   0  0  0  0  0  0  0  0  0  0  0  0
  133.4410  135.5450  151.2220 C   0  0  0  0  0  3  0  0  0  0  0  0
  132.7360  136.3030  150.2880 C   0  0  0  0  0  3  0  0  0  0  0  0
  133.3830  136.7720  149.1450 C   0  0  0  0  0  0  0  0  0  0  0  0
  136.5770  136.5660  147.3990 C   0  0  0  0  0  1  0  0  0  0  0  0
  135.2720  136.9960  147.7610 O   0  0  0  0  0  0  0  0  0  0  0  0
  132.6870  137.5100  148.2250 O   0  0  0  0  0  0  0  0  0  0  0  0
  132.0840  137.0890  147.6450 H   0  0  0  0  0  0  0  0  0  0  0  0
  134.9670  135.1650  155.6730 C   0  0  0  0  0  2  0  0  0  0  0  0
  136.0930  136.1990  155.6180 C   0  0  0  0  0  2  0  0  0  0  0  0
  137.2400  135.8500  156.5710 C   0  0  0  0  0  2  0  0  0  0  0  0
  136.8650  136.0660  158.0070 C   0  0  0  0  0  0  0  0  0  0  0  0
  136.4550  135.1240  158.9280 C   0  0  0  0  0  3  0  0  0  0  0  0
  136.2190  135.6910  160.2130 C   0  0  0  0  0  3  0  0  0  0  0  0
  136.4470  137.0480  160.2260 C   0  0  0  0  0  3  0  0  0  0  0  0
  136.9430  137.6310  158.6980 S   0  0  0  0  0  0  0  0  0  0  0  0
  1  4  1  0  0  0  0
  1  2  1  0  0  0  0
  2 16  1  0  0  0  0
  3  2  2  0  0  0  0
  5  1  1  0  0  0  0
  6 11  2  0  0  0  0
  6  7  1  0  0  0  0
  7  8  2  0  0  0  0
  8  9  1  0  0  0  0
  8  5  1  0  0  0  0
 10  9  2  0  0  0  0
 11 10  1  0  0  0  0
 12 13  1  0  0  0  0
 13  6  1  0  0  0  0
 14 11  1  0  0  0  0
 15 14  1  0  0  0  0
 17 16  1  0  0  0  0
 17 18  1  0  0  0  0
 18 19  1  0  0  0  0
 19 23  1  0  0  0  0
 19 20  2  0  0  0  0
 20 21  1  0  0  0  0
 21 22  2  0  0  0  0
 23 22  1  0  0  0  0
M  END
>  <MODEL>
9

>  <REMARK>
 VINA RESULT:    -6.165      2.400      2.782
 INTER + INTRA:          -9.547
 INTER:                  -8.971
 INTRA:                  -0.575
 UNBOUND:                -0.679
  Name = CHEMBL5423911
  9 active torsions:
  status: ('A' for Active; 'I' for Inactive)
    1  A    between atoms: C_1  and  O_2
    2  A    between atoms: O_2  and  C_3
    3  A    between atoms: C_5  and  C_6
    4  A    between atoms: C_6  and  N_7
    5  A    between atoms: C_8  and  C_10
    6  A    between atoms: C_10  and  C_11
    7  A    between atoms: C_11  and  C_12
    8  A    between atoms: C_12  and  C_13
    9  A    between atoms: C_20  and  O_21
                            x       y       z     vdW  Elec       q    Type
                         _______ _______ _______ _____ _____    ______ ____

>  <TORSDO>
F 8

>  <SCORE>
-6.165

>  <RMSD_LB>
2.400

>  <RMSD_UB>
2.782

$$$$
