CHEMBL80954
 OpenBabel10172500083D

 28 28  0  0  1  0  0  0  0  0999 V2000
  145.2750  140.3630  154.9440 N   0  0  0  0  0  0  0  0  0  0  0  0
  144.1870  139.7350  154.6210 C   0  0  1  0  0  3  0  0  0  0  0  0
  143.1790  139.7990  155.5360 N   0  0  0  0  0  0  0  0  0  0  0  0
  144.0040  139.0810  153.4430 N   0  0  0  0  0  0  0  0  0  0  0  0
  145.3190  140.8570  155.7940 H   0  0  0  0  0  0  0  0  0  0  0  0
  143.3840  140.2040  156.4090 H   0  0  0  0  0  0  0  0  0  0  0  0
  144.4720  139.4560  152.6620 H   0  0  0  0  0  0  0  0  0  0  0  0
  141.8420  139.3230  155.3290 C   0  0  0  0  0  0  0  0  0  0  0  0
  140.7920  138.8880  155.1260 N   0  0  0  0  0  0  0  0  0  0  0  0
  146.4400  140.3400  154.0540 C   0  0  0  0  0  2  0  0  0  0  0  0
  147.0460  141.7360  153.9550 C   0  0  0  0  0  2  0  0  0  0  0  0
  147.0340  142.2390  152.5130 C   0  0  0  0  0  2  0  0  0  0  0  0
  145.6150  142.3160  151.9690 C   0  0  0  0  0  2  0  0  0  0  0  0
  145.5720  141.8200  150.5280 C   0  0  0  0  0  2  0  0  0  0  0  0
  146.9110  141.2100  150.1310 C   0  0  0  0  0  2  0  0  0  0  0  0
  146.4920  138.8190  150.7510 C   0  0  0  0  0  1  0  0  0  0  0  0
  146.7320  139.7900  149.6080 C   0  0  0  0  0  2  0  0  0  0  0  0
  143.2070  137.9010  153.1980 C   0  0  0  0  0  2  0  0  0  0  0  0
  142.3770  138.0580  151.9500 C   0  0  0  0  0  0  0  0  0  0  0  0
  141.1870  137.3440  151.7860 C   0  0  0  0  0  3  0  0  0  0  0  0
  140.3950  137.5450  150.6550 C   0  0  0  0  0  3  0  0  0  0  0  0
  140.7850  138.4660  149.6750 C   0  0  0  0  0  0  0  0  0  0  0  0
  141.9780  139.1810  149.8110 C   0  0  0  0  0  0  0  0  0  0  0  0
  142.7640  138.9680  150.9530 C   0  0  0  0  0  3  0  0  0  0  0  0
  139.9640  138.6410  148.5970 O   0  0  0  0  0  0  0  0  0  0  0  0
  139.0350  138.6000  148.7050 H   0  0  0  0  0  0  0  0  0  0  0  0
  142.5130  140.1090  148.9560 O   0  0  0  0  0  0  0  0  0  0  0  0
  143.4970  139.6640  148.0320 C   0  0  0  0  0  1  0  0  0  0  0  0
  1  5  1  0  0  0  0
  2  4  1  6  0  0  0
  2  1  1  0  0  0  0
  2  3  1  0  0  0  0
  3  6  1  0  0  0  0
  7  4  1  0  0  0  0
  8  3  1  0  0  0  0
  9  8  3  0  0  0  0
 10  1  1  0  0  0  0
 11 10  1  0  0  0  0
 12 11  1  0  0  0  0
 13 12  1  0  0  0  0
 14 13  1  0  0  0  0
 15 14  1  0  0  0  0
 17 15  1  0  0  0  0
 17 16  1  0  0  0  0
 18  4  1  0  0  0  0
 19 18  1  0  0  0  0
 20 19  1  0  0  0  0
 21 20  2  0  0  0  0
 22 23  2  0  0  0  0
 22 21  1  0  0  0  0
 23 24  1  0  0  0  0
 24 19  2  0  0  0  0
 25 26  1  0  0  0  0
 25 22  1  0  0  0  0
 27 23  1  0  0  0  0
 28 27  1  0  0  0  0
M  END
>  <MODEL>
1

>  <REMARK>
 VINA RESULT:    -6.434      0.000      0.000
 INTER + INTRA:         -11.905
 INTER:                 -10.245
 INTRA:                  -1.661
 UNBOUND:                -1.147
  Name = CHEMBL80954
  14 active torsions:
  status: ('A' for Active; 'I' for Inactive)
    1  A    between atoms: C_1  and  C_2
    2  A    between atoms: C_2  and  C_3
    3  A    between atoms: C_3  and  C_4
    4  A    between atoms: C_4  and  C_5
    5  A    between atoms: C_5  and  C_6
    6  A    between atoms: C_6  and  C_7
    7  A    between atoms: C_7  and  C_8
    8  A    between atoms: C_8  and  N_9
    9  A    between atoms: N_11  and  C_12
   10  A    between atoms: N_14  and  C_15
   11  A    between atoms: C_15  and  C_16
   12  A    between atoms: C_19  and  O_20
   13  A    between atoms: C_21  and  O_22
   14  A    between atoms: O_22  and  C_23
                            x       y       z     vdW  Elec       q    Type
                         _______ _______ _______ _____ _____    ______ ____

>  <TORSDO>
F 12

>  <SCORE>
-6.434

>  <RMSD_LB>
0.000

>  <RMSD_UB>
0.000

$$$$
CHEMBL80954
 OpenBabel10172500083D

 28 28  0  0  1  0  0  0  0  0999 V2000
  144.9560  140.1180  154.8380 N   0  0  0  0  0  0  0  0  0  0  0  0
  143.7900  139.6870  154.4690 C   0  0  1  0  0  3  0  0  0  0  0  0
  142.9010  139.4590  155.4770 N   0  0  0  0  0  0  0  0  0  0  0  0
  143.4190  139.5020  153.1740 N   0  0  0  0  0  0  0  0  0  0  0  0
  145.1380  140.2750  155.7930 H   0  0  0  0  0  0  0  0  0  0  0  0
  143.2380  139.5190  156.4000 H   0  0  0  0  0  0  0  0  0  0  0  0
  143.8240  140.1130  152.5160 H   0  0  0  0  0  0  0  0  0  0  0  0
  141.5150  139.1380  155.3020 C   0  0  0  0  0  0  0  0  0  0  0  0
  140.4160  138.8440  155.1050 N   0  0  0  0  0  0  0  0  0  0  0  0
  146.0050  140.3700  153.8460 C   0  0  0  0  0  2  0  0  0  0  0  0
  146.3090  141.8620  153.7790 C   0  0  0  0  0  2  0  0  0  0  0  0
  146.9000  142.2430  152.4230 C   0  0  0  0  0  2  0  0  0  0  0  0
  145.8050  142.5750  151.4200 C   0  0  0  0  0  2  0  0  0  0  0  0
  146.2890  142.3120  149.9990 C   0  0  0  0  0  2  0  0  0  0  0  0
  146.5150  140.8220  149.7770 C   0  0  0  0  0  2  0  0  0  0  0  0
  144.4400  139.7760  148.8370 C   0  0  0  0  0  1  0  0  0  0  0  0
  145.8110  140.3440  148.5120 C   0  0  0  0  0  2  0  0  0  0  0  0
  142.5040  138.5170  152.6450 C   0  0  0  0  0  2  0  0  0  0  0  0
  143.1920  137.6190  151.6480 C   0  0  0  0  0  0  0  0  0  0  0  0
  144.5660  137.3740  151.7330 C   0  0  0  0  0  3  0  0  0  0  0  0
  145.1790  136.4920  150.8430 C   0  0  0  0  0  3  0  0  0  0  0  0
  144.4240  135.8420  149.8600 C   0  0  0  0  0  0  0  0  0  0  0  0
  143.0520  136.0820  149.7470 C   0  0  0  0  0  0  0  0  0  0  0  0
  142.4480  136.9720  150.6480 C   0  0  0  0  0  3  0  0  0  0  0  0
  145.0700  134.9710  149.0270 O   0  0  0  0  0  0  0  0  0  0  0  0
  146.0020  134.8980  149.0590 H   0  0  0  0  0  0  0  0  0  0  0  0
  142.1680  135.5440  148.8500 O   0  0  0  0  0  0  0  0  0  0  0  0
  141.6410  136.4020  147.8470 C   0  0  0  0  0  1  0  0  0  0  0  0
  1  5  1  0  0  0  0
  2  4  1  6  0  0  0
  2  1  1  0  0  0  0
  2  3  1  0  0  0  0
  3  6  1  0  0  0  0
  7  4  1  0  0  0  0
  8  3  1  0  0  0  0
  9  8  3  0  0  0  0
 10  1  1  0  0  0  0
 11 10  1  0  0  0  0
 12 11  1  0  0  0  0
 13 12  1  0  0  0  0
 14 13  1  0  0  0  0
 15 14  1  0  0  0  0
 17 16  1  0  0  0  0
 17 15  1  0  0  0  0
 18  4  1  0  0  0  0
 19 20  1  0  0  0  0
 19 18  1  0  0  0  0
 21 20  2  0  0  0  0
 22 21  1  0  0  0  0
 23 22  2  0  0  0  0
 23 24  1  0  0  0  0
 24 19  2  0  0  0  0
 25 26  1  0  0  0  0
 25 22  1  0  0  0  0
 27 23  1  0  0  0  0
 28 27  1  0  0  0  0
M  END
>  <MODEL>
2

>  <REMARK>
 VINA RESULT:    -6.235      2.066      2.604
 INTER + INTRA:         -11.574
 INTER:                 -10.229
 INTRA:                  -1.345
 UNBOUND:                -1.147
  Name = CHEMBL80954
  14 active torsions:
  status: ('A' for Active; 'I' for Inactive)
    1  A    between atoms: C_1  and  C_2
    2  A    between atoms: C_2  and  C_3
    3  A    between atoms: C_3  and  C_4
    4  A    between atoms: C_4  and  C_5
    5  A    between atoms: C_5  and  C_6
    6  A    between atoms: C_6  and  C_7
    7  A    between atoms: C_7  and  C_8
    8  A    between atoms: C_8  and  N_9
    9  A    between atoms: N_11  and  C_12
   10  A    between atoms: N_14  and  C_15
   11  A    between atoms: C_15  and  C_16
   12  A    between atoms: C_19  and  O_20
   13  A    between atoms: C_21  and  O_22
   14  A    between atoms: O_22  and  C_23
                            x       y       z     vdW  Elec       q    Type
                         _______ _______ _______ _____ _____    ______ ____

>  <TORSDO>
F 12

>  <SCORE>
-6.235

>  <RMSD_LB>
2.066

>  <RMSD_UB>
2.604

$$$$
CHEMBL80954
 OpenBabel10172500083D

 28 28  0  0  1  0  0  0  0  0999 V2000
  145.5460  140.1320  154.8220 N   0  0  0  0  0  0  0  0  0  0  0  0
  144.3930  139.6180  154.5270 C   0  0  1  0  0  3  0  0  0  0  0  0
  143.4510  139.6850  155.5100 N   0  0  0  0  0  0  0  0  0  0  0  0
  144.0840  139.0760  153.3180 N   0  0  0  0  0  0  0  0  0  0  0  0
  145.6830  140.5510  155.7020 H   0  0  0  0  0  0  0  0  0  0  0  0
  143.7420  140.0020  156.3950 H   0  0  0  0  0  0  0  0  0  0  0  0
  144.5330  139.4770  152.5380 H   0  0  0  0  0  0  0  0  0  0  0  0
  142.0690  139.3330  155.3590 C   0  0  0  0  0  0  0  0  0  0  0  0
  140.9400  139.1120  155.2610 N   0  0  0  0  0  0  0  0  0  0  0  0
  146.6490  140.0910  153.8560 C   0  0  0  0  0  2  0  0  0  0  0  0
  147.6700  141.1730  154.1880 C   0  0  0  0  0  2  0  0  0  0  0  0
  148.1590  141.8740  152.9220 C   0  0  0  0  0  2  0  0  0  0  0  0
  146.9960  142.2300  152.0070 C   0  0  0  0  0  2  0  0  0  0  0  0
  147.4910  142.4530  150.5820 C   0  0  0  0  0  2  0  0  0  0  0  0
  146.4600  141.9600  149.5740 C   0  0  0  0  0  2  0  0  0  0  0  0
  145.9930  139.5080  149.7890 C   0  0  0  0  0  1  0  0  0  0  0  0
  145.5510  140.9040  150.1930 C   0  0  0  0  0  2  0  0  0  0  0  0
  143.1800  137.9850  153.0400 C   0  0  0  0  0  2  0  0  0  0  0  0
  142.1740  138.3710  151.9860 C   0  0  0  0  0  0  0  0  0  0  0  0
  142.3710  139.5020  151.1870 C   0  0  0  0  0  3  0  0  0  0  0  0
  141.4650  139.8140  150.1730 C   0  0  0  0  0  3  0  0  0  0  0  0
  140.3530  138.9950  149.9430 C   0  0  0  0  0  0  0  0  0  0  0  0
  140.1280  137.8670  150.7380 C   0  0  0  0  0  0  0  0  0  0  0  0
  141.0470  137.5660  151.7540 C   0  0  0  0  0  3  0  0  0  0  0  0
  139.5080  139.3330  148.9240 O   0  0  0  0  0  0  0  0  0  0  0  0
  139.4130  138.7630  148.1870 H   0  0  0  0  0  0  0  0  0  0  0  0
  139.0990  136.9660  150.6600 O   0  0  0  0  0  0  0  0  0  0  0  0
  137.8740  137.3070  151.2950 C   0  0  0  0  0  1  0  0  0  0  0  0
  1  5  1  0  0  0  0
  2  4  1  6  0  0  0
  2  1  1  0  0  0  0
  2  3  1  0  0  0  0
  3  6  1  0  0  0  0
  7  4  1  0  0  0  0
  8  3  1  0  0  0  0
  9  8  3  0  0  0  0
 10 11  1  0  0  0  0
 10  1  1  0  0  0  0
 12 11  1  0  0  0  0
 13 12  1  0  0  0  0
 14 13  1  0  0  0  0
 15 17  1  0  0  0  0
 15 14  1  0  0  0  0
 16 17  1  0  0  0  0
 18  4  1  0  0  0  0
 19 18  1  0  0  0  0
 20 19  2  0  0  0  0
 21 20  1  0  0  0  0
 22 21  2  0  0  0  0
 22 23  1  0  0  0  0
 23 24  2  0  0  0  0
 24 19  1  0  0  0  0
 25 22  1  0  0  0  0
 26 25  1  0  0  0  0
 27 23  1  0  0  0  0
 27 28  1  0  0  0  0
M  END
>  <MODEL>
3

>  <REMARK>
 VINA RESULT:    -6.217      1.105      2.169
 INTER + INTRA:         -11.543
 INTER:                 -10.241
 INTRA:                  -1.301
 UNBOUND:                -1.147
  Name = CHEMBL80954
  14 active torsions:
  status: ('A' for Active; 'I' for Inactive)
    1  A    between atoms: C_1  and  C_2
    2  A    between atoms: C_2  and  C_3
    3  A    between atoms: C_3  and  C_4
    4  A    between atoms: C_4  and  C_5
    5  A    between atoms: C_5  and  C_6
    6  A    between atoms: C_6  and  C_7
    7  A    between atoms: C_7  and  C_8
    8  A    between atoms: C_8  and  N_9
    9  A    between atoms: N_11  and  C_12
   10  A    between atoms: N_14  and  C_15
   11  A    between atoms: C_15  and  C_16
   12  A    between atoms: C_19  and  O_20
   13  A    between atoms: C_21  and  O_22
   14  A    between atoms: O_22  and  C_23
                            x       y       z     vdW  Elec       q    Type
                         _______ _______ _______ _____ _____    ______ ____

>  <TORSDO>
F 12

>  <SCORE>
-6.217

>  <RMSD_LB>
1.105

>  <RMSD_UB>
2.169

$$$$
CHEMBL80954
 OpenBabel10172500083D

 28 28  0  0  1  0  0  0  0  0999 V2000
  144.9340  139.7310  148.7650 N   0  0  0  0  0  0  0  0  0  0  0  0
  144.8060  138.5450  149.2720 C   0  0  1  0  0  3  0  0  0  0  0  0
  143.7460  137.8220  148.8130 N   0  0  0  0  0  0  0  0  0  0  0  0
  145.6710  137.9990  150.1690 N   0  0  0  0  0  0  0  0  0  0  0  0
  144.2960  140.0420  148.0830 H   0  0  0  0  0  0  0  0  0  0  0  0
  143.0970  138.2850  148.2350 H   0  0  0  0  0  0  0  0  0  0  0  0
  146.6120  138.2780  150.0860 H   0  0  0  0  0  0  0  0  0  0  0  0
  143.4970  136.4400  149.1050 C   0  0  0  0  0  0  0  0  0  0  0  0
  143.3460  135.3100  149.2930 N   0  0  0  0  0  0  0  0  0  0  0  0
  146.0200  140.6150  149.2030 C   0  0  0  0  0  2  0  0  0  0  0  0
  145.5390  141.5030  150.3440 C   0  0  0  0  0  2  0  0  0  0  0  0
  146.5350  142.6260  150.6250 C   0  0  0  0  0  2  0  0  0  0  0  0
  147.9620  142.1770  150.3440 C   0  0  0  0  0  2  0  0  0  0  0  0
  148.7970  142.2380  151.6180 C   0  0  0  0  0  2  0  0  0  0  0  0
  148.5170  141.0280  152.5010 C   0  0  0  0  0  2  0  0  0  0  0  0
  146.9170  142.0180  154.1560 C   0  0  0  0  0  1  0  0  0  0  0  0
  148.3090  141.4460  153.9530 C   0  0  0  0  0  2  0  0  0  0  0  0
  145.3770  137.0620  151.2280 C   0  0  0  0  0  2  0  0  0  0  0  0
  145.8400  137.5900  152.5610 C   0  0  0  0  0  0  0  0  0  0  0  0
  144.9670  138.2900  153.3980 C   0  0  0  0  0  3  0  0  0  0  0  0
  145.3900  138.7180  154.6570 C   0  0  0  0  0  3  0  0  0  0  0  0
  146.6910  138.4480  155.0940 C   0  0  0  0  0  0  0  0  0  0  0  0
  147.5870  137.7610  154.2690 C   0  0  0  0  0  0  0  0  0  0  0  0
  147.1480  137.3370  153.0060 C   0  0  0  0  0  3  0  0  0  0  0  0
  147.0490  138.8700  156.3430 O   0  0  0  0  0  0  0  0  0  0  0  0
  146.6680  139.6470  156.7020 H   0  0  0  0  0  0  0  0  0  0  0  0
  148.8880  137.4190  154.5290 O   0  0  0  0  0  0  0  0  0  0  0  0
  149.7860  137.3550  153.4300 C   0  0  0  0  0  1  0  0  0  0  0  0
  1 10  1  0  0  0  0
  2  1  1  6  0  0  0
  2  4  1  0  0  0  0
  3  8  1  0  0  0  0
  3  2  1  0  0  0  0
  4 18  1  0  0  0  0
  5  1  1  0  0  0  0
  6  3  1  0  0  0  0
  7  4  1  0  0  0  0
  8  9  3  0  0  0  0
 10 11  1  0  0  0  0
 11 12  1  0  0  0  0
 13 12  1  0  0  0  0
 13 14  1  0  0  0  0
 14 15  1  0  0  0  0
 15 17  1  0  0  0  0
 17 16  1  0  0  0  0
 18 19  1  0  0  0  0
 19 24  2  0  0  0  0
 19 20  1  0  0  0  0
 20 21  2  0  0  0  0
 21 22  1  0  0  0  0
 22 25  1  0  0  0  0
 23 27  1  0  0  0  0
 23 22  2  0  0  0  0
 24 23  1  0  0  0  0
 25 26  1  0  0  0  0
 28 27  1  0  0  0  0
M  END
>  <MODEL>
4

>  <REMARK>
 VINA RESULT:    -6.106      4.189      5.926
 INTER + INTRA:         -11.358
 INTER:                  -9.607
 INTRA:                  -1.751
 UNBOUND:                -1.147
  Name = CHEMBL80954
  14 active torsions:
  status: ('A' for Active; 'I' for Inactive)
    1  A    between atoms: C_1  and  C_2
    2  A    between atoms: C_2  and  C_3
    3  A    between atoms: C_3  and  C_4
    4  A    between atoms: C_4  and  C_5
    5  A    between atoms: C_5  and  C_6
    6  A    between atoms: C_6  and  C_7
    7  A    between atoms: C_7  and  C_8
    8  A    between atoms: C_8  and  N_9
    9  A    between atoms: N_11  and  C_12
   10  A    between atoms: N_14  and  C_15
   11  A    between atoms: C_15  and  C_16
   12  A    between atoms: C_19  and  O_20
   13  A    between atoms: C_21  and  O_22
   14  A    between atoms: O_22  and  C_23
                            x       y       z     vdW  Elec       q    Type
                         _______ _______ _______ _____ _____    ______ ____

>  <TORSDO>
F 12

>  <SCORE>
-6.106

>  <RMSD_LB>
4.189

>  <RMSD_UB>
5.926

$$$$
CHEMBL80954
 OpenBabel10172500083D

 28 28  0  0  1  0  0  0  0  0999 V2000
  144.2540  138.8410  149.2560 N   0  0  0  0  0  0  0  0  0  0  0  0
  144.9030  139.9300  148.9850 C   0  0  1  0  0  3  0  0  0  0  0  0
  145.5690  139.9360  147.7950 N   0  0  0  0  0  0  0  0  0  0  0  0
  144.9120  141.0330  149.7800 N   0  0  0  0  0  0  0  0  0  0  0  0
  144.2530  138.1000  148.6080 H   0  0  0  0  0  0  0  0  0  0  0  0
  145.6100  139.0890  147.2950 H   0  0  0  0  0  0  0  0  0  0  0  0
  144.0900  141.1990  150.2990 H   0  0  0  0  0  0  0  0  0  0  0  0
  146.2160  141.0760  147.2140 C   0  0  0  0  0  0  0  0  0  0  0  0
  146.7750  141.9510  146.7070 N   0  0  0  0  0  0  0  0  0  0  0  0
  143.5230  138.7050  150.5200 C   0  0  0  0  0  2  0  0  0  0  0  0
  144.2350  137.7070  151.4260 C   0  0  0  0  0  2  0  0  0  0  0  0
  145.6520  137.4280  150.9310 C   0  0  0  0  0  2  0  0  0  0  0  0
  146.2930  136.2890  151.7100 C   0  0  0  0  0  2  0  0  0  0  0  0
  147.0340  136.8300  152.9280 C   0  0  0  0  0  2  0  0  0  0  0  0
  148.3670  137.4420  152.5160 C   0  0  0  0  0  2  0  0  0  0  0  0
  148.4700  137.5190  155.0180 C   0  0  0  0  0  1  0  0  0  0  0  0
  149.2570  137.6820  153.7300 C   0  0  0  0  0  2  0  0  0  0  0  0
  145.9790  141.9900  149.9590 C   0  0  0  0  0  2  0  0  0  0  0  0
  146.7800  141.6810  151.1980 C   0  0  0  0  0  0  0  0  0  0  0  0
  148.1020  142.1180  151.3240 C   0  0  0  0  0  3  0  0  0  0  0  0
  148.8130  141.8800  152.5010 C   0  0  0  0  0  3  0  0  0  0  0  0
  148.2070  141.2070  153.5670 C   0  0  0  0  0  0  0  0  0  0  0  0
  146.8910  140.7480  153.4600 C   0  0  0  0  0  0  0  0  0  0  0  0
  146.1890  140.9940  152.2710 C   0  0  0  0  0  3  0  0  0  0  0  0
  148.9390  141.0180  154.7060 O   0  0  0  0  0  0  0  0  0  0  0  0
  148.5330  141.1120  155.5440 H   0  0  0  0  0  0  0  0  0  0  0  0
  146.1490  140.0720  154.3920 O   0  0  0  0  0  0  0  0  0  0  0  0
  144.7480  139.9750  154.1760 C   0  0  0  0  0  1  0  0  0  0  0  0
  1 10  1  0  0  0  0
  2  3  1  6  0  0  0
  2  1  1  0  0  0  0
  2  4  1  0  0  0  0
  4 18  1  0  0  0  0
  4  7  1  0  0  0  0
  5  1  1  0  0  0  0
  6  3  1  0  0  0  0
  8  3  1  0  0  0  0
  9  8  3  0  0  0  0
 10 11  1  0  0  0  0
 12 11  1  0  0  0  0
 12 13  1  0  0  0  0
 13 14  1  0  0  0  0
 15 14  1  0  0  0  0
 15 17  1  0  0  0  0
 17 16  1  0  0  0  0
 18 19  1  0  0  0  0
 19 20  2  0  0  0  0
 19 24  1  0  0  0  0
 20 21  1  0  0  0  0
 21 22  2  0  0  0  0
 22 25  1  0  0  0  0
 23 22  1  0  0  0  0
 23 27  1  0  0  0  0
 24 23  2  0  0  0  0
 25 26  1  0  0  0  0
 28 27  1  0  0  0  0
M  END
>  <MODEL>
5

>  <REMARK>
 VINA RESULT:    -5.970      3.731      6.933
 INTER + INTRA:         -11.130
 INTER:                  -9.459
 INTRA:                  -1.671
 UNBOUND:                -1.147
  Name = CHEMBL80954
  14 active torsions:
  status: ('A' for Active; 'I' for Inactive)
    1  A    between atoms: C_1  and  C_2
    2  A    between atoms: C_2  and  C_3
    3  A    between atoms: C_3  and  C_4
    4  A    between atoms: C_4  and  C_5
    5  A    between atoms: C_5  and  C_6
    6  A    between atoms: C_6  and  C_7
    7  A    between atoms: C_7  and  C_8
    8  A    between atoms: C_8  and  N_9
    9  A    between atoms: N_11  and  C_12
   10  A    between atoms: N_14  and  C_15
   11  A    between atoms: C_15  and  C_16
   12  A    between atoms: C_19  and  O_20
   13  A    between atoms: C_21  and  O_22
   14  A    between atoms: O_22  and  C_23
                            x       y       z     vdW  Elec       q    Type
                         _______ _______ _______ _____ _____    ______ ____

>  <TORSDO>
F 12

>  <SCORE>
-5.970

>  <RMSD_LB>
3.731

>  <RMSD_UB>
6.933

$$$$
CHEMBL80954
 OpenBabel10172500083D

 28 28  0  0  1  0  0  0  0  0999 V2000
  142.1350  139.0160  151.1760 N   0  0  0  0  0  0  0  0  0  0  0  0
  142.2500  138.9440  152.4650 C   0  0  1  0  0  3  0  0  0  0  0  0
  141.0930  139.1100  153.1680 N   0  0  0  0  0  0  0  0  0  0  0  0
  143.4150  138.6800  153.1150 N   0  0  0  0  0  0  0  0  0  0  0  0
  141.2490  139.1620  150.7720 H   0  0  0  0  0  0  0  0  0  0  0  0
  140.2940  139.3870  152.6650 H   0  0  0  0  0  0  0  0  0  0  0  0
  144.0490  138.0920  152.6440 H   0  0  0  0  0  0  0  0  0  0  0  0
  140.9470  138.9130  154.5810 C   0  0  0  0  0  0  0  0  0  0  0  0
  140.8700  138.6980  155.7130 N   0  0  0  0  0  0  0  0  0  0  0  0
  143.3150  138.8840  150.3150 C   0  0  0  0  0  2  0  0  0  0  0  0
  143.1620  137.6680  149.4080 C   0  0  0  0  0  2  0  0  0  0  0  0
  143.4190  136.3730  150.1760 C   0  0  0  0  0  2  0  0  0  0  0  0
  144.5200  135.5530  149.5190 C   0  0  0  0  0  2  0  0  0  0  0  0
  145.8900  136.1000  149.9030 C   0  0  0  0  0  2  0  0  0  0  0  0
  146.0800  136.0590  151.4140 C   0  0  0  0  0  2  0  0  0  0  0  0
  146.8930  138.3990  151.0360 C   0  0  0  0  0  1  0  0  0  0  0  0
  147.0510  137.1410  151.8730 C   0  0  0  0  0  2  0  0  0  0  0  0
  143.8350  139.1570  154.4120 C   0  0  0  0  0  2  0  0  0  0  0  0
  145.2750  139.6000  154.3850 C   0  0  0  0  0  0  0  0  0  0  0  0
  146.2660  138.8570  155.0330 C   0  0  0  0  0  3  0  0  0  0  0  0
  147.6050  139.2440  154.9470 C   0  0  0  0  0  3  0  0  0  0  0  0
  147.9670  140.3760  154.2090 C   0  0  0  0  0  0  0  0  0  0  0  0
  146.9910  141.1430  153.5650 C   0  0  0  0  0  0  0  0  0  0  0  0
  145.6500  140.7430  153.6590 C   0  0  0  0  0  3  0  0  0  0  0  0
  149.2920  140.7000  154.1400 O   0  0  0  0  0  0  0  0  0  0  0  0
  149.6120  141.2120  153.4240 H   0  0  0  0  0  0  0  0  0  0  0  0
  147.1630  142.2750  152.8110 O   0  0  0  0  0  0  0  0  0  0  0  0
  146.5230  142.3260  151.5440 C   0  0  0  0  0  1  0  0  0  0  0  0
  2  1  1  6  0  0  0
  2  4  1  0  0  0  0
  2  3  1  0  0  0  0
  3  8  1  0  0  0  0
  4 18  1  0  0  0  0
  5  1  1  0  0  0  0
  6  3  1  0  0  0  0
  7  4  1  0  0  0  0
  8  9  3  0  0  0  0
 10  1  1  0  0  0  0
 11 12  1  0  0  0  0
 11 10  1  0  0  0  0
 13 14  1  0  0  0  0
 13 12  1  0  0  0  0
 14 15  1  0  0  0  0
 15 17  1  0  0  0  0
 16 17  1  0  0  0  0
 19 18  1  0  0  0  0
 19 20  1  0  0  0  0
 21 20  2  0  0  0  0
 22 21  1  0  0  0  0
 23 24  1  0  0  0  0
 23 22  2  0  0  0  0
 24 19  2  0  0  0  0
 25 22  1  0  0  0  0
 26 25  1  0  0  0  0
 27 23  1  0  0  0  0
 28 27  1  0  0  0  0
M  END
>  <MODEL>
6

>  <REMARK>
 VINA RESULT:    -5.821      2.835      5.657
 INTER + INTRA:         -10.880
 INTER:                  -9.029
 INTRA:                  -1.851
 UNBOUND:                -1.147
  Name = CHEMBL80954
  14 active torsions:
  status: ('A' for Active; 'I' for Inactive)
    1  A    between atoms: C_1  and  C_2
    2  A    between atoms: C_2  and  C_3
    3  A    between atoms: C_3  and  C_4
    4  A    between atoms: C_4  and  C_5
    5  A    between atoms: C_5  and  C_6
    6  A    between atoms: C_6  and  C_7
    7  A    between atoms: C_7  and  C_8
    8  A    between atoms: C_8  and  N_9
    9  A    between atoms: N_11  and  C_12
   10  A    between atoms: N_14  and  C_15
   11  A    between atoms: C_15  and  C_16
   12  A    between atoms: C_19  and  O_20
   13  A    between atoms: C_21  and  O_22
   14  A    between atoms: O_22  and  C_23
                            x       y       z     vdW  Elec       q    Type
                         _______ _______ _______ _____ _____    ______ ____

>  <TORSDO>
F 12

>  <SCORE>
-5.821

>  <RMSD_LB>
2.835

>  <RMSD_UB>
5.657

$$$$
CHEMBL80954
 OpenBabel10172500083D

 28 28  0  0  1  0  0  0  0  0999 V2000
  142.8860  139.4770  153.7480 N   0  0  0  0  0  0  0  0  0  0  0  0
  141.9650  138.9460  153.0050 C   0  0  1  0  0  3  0  0  0  0  0  0
  140.7350  138.8360  153.5830 N   0  0  0  0  0  0  0  0  0  0  0  0
  142.1550  138.5510  151.7180 N   0  0  0  0  0  0  0  0  0  0  0  0
  142.6620  139.7840  154.6560 H   0  0  0  0  0  0  0  0  0  0  0  0
  140.6640  139.0490  154.5410 H   0  0  0  0  0  0  0  0  0  0  0  0
  142.8090  139.0730  151.1980 H   0  0  0  0  0  0  0  0  0  0  0  0
  139.5360  138.4340  152.9070 C   0  0  0  0  0  0  0  0  0  0  0  0
  138.5490  138.1770  152.3660 N   0  0  0  0  0  0  0  0  0  0  0  0
  144.2560  139.6200  153.2470 C   0  0  0  0  0  2  0  0  0  0  0  0
  145.2230  139.7710  154.4150 C   0  0  0  0  0  2  0  0  0  0  0  0
  146.5600  140.3470  153.9510 C   0  0  0  0  0  2  0  0  0  0  0  0
  146.4870  141.8600  153.8100 C   0  0  0  0  0  2  0  0  0  0  0  0
  146.9420  142.2860  152.4190 C   0  0  0  0  0  2  0  0  0  0  0  0
  145.7440  142.4790  151.4980 C   0  0  0  0  0  2  0  0  0  0  0  0
  146.6150  140.6490  150.0250 C   0  0  0  0  0  1  0  0  0  0  0  0
  146.0800  142.0700  150.0690 C   0  0  0  0  0  2  0  0  0  0  0  0
  141.5160  137.4600  151.0200 C   0  0  0  0  0  2  0  0  0  0  0  0
  142.5280  136.6220  150.2830 C   0  0  0  0  0  0  0  0  0  0  0  0
  142.1490  135.8390  149.1880 C   0  0  0  0  0  3  0  0  0  0  0  0
  143.1060  135.1160  148.4750 C   0  0  0  0  0  3  0  0  0  0  0  0
  144.4540  135.1730  148.8460 C   0  0  0  0  0  0  0  0  0  0  0  0
  144.8550  135.9380  149.9460 C   0  0  0  0  0  0  0  0  0  0  0  0
  143.8820  136.6580  150.6540 C   0  0  0  0  0  3  0  0  0  0  0  0
  145.3550  134.4640  148.1020 O   0  0  0  0  0  0  0  0  0  0  0  0
  145.0910  133.6720  147.6770 H   0  0  0  0  0  0  0  0  0  0  0  0
  146.1180  136.1020  150.4500 O   0  0  0  0  0  0  0  0  0  0  0  0
  146.2440  136.3590  151.8420 C   0  0  0  0  0  1  0  0  0  0  0  0
  1  5  1  0  0  0  0
  2  4  1  6  0  0  0
  2  3  1  0  0  0  0
  2  1  1  0  0  0  0
  3  6  1  0  0  0  0
  7  4  1  0  0  0  0
  8  3  1  0  0  0  0
  9  8  3  0  0  0  0
 10  1  1  0  0  0  0
 10 11  1  0  0  0  0
 12 11  1  0  0  0  0
 13 12  1  0  0  0  0
 14 13  1  0  0  0  0
 15 14  1  0  0  0  0
 16 17  1  0  0  0  0
 17 15  1  0  0  0  0
 18  4  1  0  0  0  0
 19 24  1  0  0  0  0
 19 18  1  0  0  0  0
 20 19  2  0  0  0  0
 21 22  2  0  0  0  0
 21 20  1  0  0  0  0
 22 23  1  0  0  0  0
 23 27  1  0  0  0  0
 23 24  2  0  0  0  0
 25 22  1  0  0  0  0
 26 25  1  0  0  0  0
 27 28  1  0  0  0  0
M  END
>  <MODEL>
7

>  <REMARK>
 VINA RESULT:    -5.757      2.775      3.562
 INTER + INTRA:         -10.774
 INTER:                  -9.656
 INTRA:                  -1.117
 UNBOUND:                -1.147
  Name = CHEMBL80954
  14 active torsions:
  status: ('A' for Active; 'I' for Inactive)
    1  A    between atoms: C_1  and  C_2
    2  A    between atoms: C_2  and  C_3
    3  A    between atoms: C_3  and  C_4
    4  A    between atoms: C_4  and  C_5
    5  A    between atoms: C_5  and  C_6
    6  A    between atoms: C_6  and  C_7
    7  A    between atoms: C_7  and  C_8
    8  A    between atoms: C_8  and  N_9
    9  A    between atoms: N_11  and  C_12
   10  A    between atoms: N_14  and  C_15
   11  A    between atoms: C_15  and  C_16
   12  A    between atoms: C_19  and  O_20
   13  A    between atoms: C_21  and  O_22
   14  A    between atoms: O_22  and  C_23
                            x       y       z     vdW  Elec       q    Type
                         _______ _______ _______ _____ _____    ______ ____

>  <TORSDO>
F 12

>  <SCORE>
-5.757

>  <RMSD_LB>
2.775

>  <RMSD_UB>
3.562

$$$$
CHEMBL80954
 OpenBabel10172500083D

 28 28  0  0  1  0  0  0  0  0999 V2000
  134.0490  133.5960  145.6240 N   0  0  0  0  0  0  0  0  0  0  0  0
  134.0400  133.6500  146.9200 C   0  0  1  0  0  3  0  0  0  0  0  0
  132.8060  133.7030  147.4960 N   0  0  0  0  0  0  0  0  0  0  0  0
  135.1580  133.6160  147.6940 N   0  0  0  0  0  0  0  0  0  0  0  0
  133.1980  133.5760  145.1310 H   0  0  0  0  0  0  0  0  0  0  0  0
  132.0320  133.8170  146.9000 H   0  0  0  0  0  0  0  0  0  0  0  0
  135.9120  133.0900  147.3410 H   0  0  0  0  0  0  0  0  0  0  0  0
  132.5450  133.6060  148.9030 C   0  0  0  0  0  0  0  0  0  0  0  0
  132.2880  133.5800  150.0290 N   0  0  0  0  0  0  0  0  0  0  0  0
  135.3180  133.5670  144.8890 C   0  0  0  0  0  2  0  0  0  0  0  0
  135.4910  132.2160  144.2050 C   0  0  0  0  0  2  0  0  0  0  0  0
  136.9670  131.8370  144.1010 C   0  0  0  0  0  2  0  0  0  0  0  0
  137.3950  131.6870  142.6480 C   0  0  0  0  0  2  0  0  0  0  0  0
  137.8750  133.0250  142.0960 C   0  0  0  0  0  2  0  0  0  0  0  0
  137.1080  133.3890  140.8310 C   0  0  0  0  0  2  0  0  0  0  0  0
  136.9060  135.4690  142.2130 C   0  0  0  0  0  1  0  0  0  0  0  0
  136.7160  134.8620  140.8330 C   0  0  0  0  0  2  0  0  0  0  0  0
  135.3730  134.2570  148.9700 C   0  0  0  0  0  2  0  0  0  0  0  0
  136.7470  134.8720  149.0410 C   0  0  0  0  0  0  0  0  0  0  0  0
  137.7950  134.3800  148.2580 C   0  0  0  0  0  3  0  0  0  0  0  0
  139.0450  134.9980  148.2860 C   0  0  0  0  0  3  0  0  0  0  0  0
  139.2610  136.1190  149.0960 C   0  0  0  0  0  0  0  0  0  0  0  0
  138.2320  136.6200  149.8990 C   0  0  0  0  0  0  0  0  0  0  0  0
  136.9800  135.9890  149.8610 C   0  0  0  0  0  3  0  0  0  0  0  0
  140.4970  136.7000  149.0710 O   0  0  0  0  0  0  0  0  0  0  0  0
  141.0630  136.5660  148.3370 H   0  0  0  0  0  0  0  0  0  0  0  0
  138.2670  137.6940  150.7490 O   0  0  0  0  0  0  0  0  0  0  0  0
  138.0680  137.4450  152.1340 C   0  0  0  0  0  1  0  0  0  0  0  0
  2  1  1  1  0  0  0
  2  3  1  0  0  0  0
  2  4  1  0  0  0  0
  3  8  1  0  0  0  0
  4 18  1  0  0  0  0
  5  1  1  0  0  0  0
  6  3  1  0  0  0  0
  7  4  1  0  0  0  0
  8  9  3  0  0  0  0
 10  1  1  0  0  0  0
 11 10  1  0  0  0  0
 12 11  1  0  0  0  0
 13 12  1  0  0  0  0
 14 13  1  0  0  0  0
 15 17  1  0  0  0  0
 15 14  1  0  0  0  0
 17 16  1  0  0  0  0
 18 19  1  0  0  0  0
 19 24  1  0  0  0  0
 20 21  1  0  0  0  0
 20 19  2  0  0  0  0
 21 22  2  0  0  0  0
 22 23  1  0  0  0  0
 23 27  1  0  0  0  0
 24 23  2  0  0  0  0
 25 22  1  0  0  0  0
 26 25  1  0  0  0  0
 27 28  1  0  0  0  0
M  END
>  <MODEL>
8

>  <REMARK>
 VINA RESULT:    -5.723      8.196     11.884
 INTER + INTRA:         -10.718
 INTER:                  -9.705
 INTRA:                  -1.013
 UNBOUND:                -1.147
  Name = CHEMBL80954
  14 active torsions:
  status: ('A' for Active; 'I' for Inactive)
    1  A    between atoms: C_1  and  C_2
    2  A    between atoms: C_2  and  C_3
    3  A    between atoms: C_3  and  C_4
    4  A    between atoms: C_4  and  C_5
    5  A    between atoms: C_5  and  C_6
    6  A    between atoms: C_6  and  C_7
    7  A    between atoms: C_7  and  C_8
    8  A    between atoms: C_8  and  N_9
    9  A    between atoms: N_11  and  C_12
   10  A    between atoms: N_14  and  C_15
   11  A    between atoms: C_15  and  C_16
   12  A    between atoms: C_19  and  O_20
   13  A    between atoms: C_21  and  O_22
   14  A    between atoms: O_22  and  C_23
                            x       y       z     vdW  Elec       q    Type
                         _______ _______ _______ _____ _____    ______ ____

>  <TORSDO>
F 12

>  <SCORE>
-5.723

>  <RMSD_LB>
8.196

>  <RMSD_UB>
11.884

$$$$
CHEMBL80954
 OpenBabel10172500083D

 28 28  0  0  1  0  0  0  0  0999 V2000
  144.1170  138.8100  153.0230 N   0  0  0  0  0  0  0  0  0  0  0  0
  145.2630  139.4160  153.0380 C   0  0  1  0  0  3  0  0  0  0  0  0
  145.2990  140.5860  153.7370 N   0  0  0  0  0  0  0  0  0  0  0  0
  146.3900  138.9350  152.4490 N   0  0  0  0  0  0  0  0  0  0  0  0
  143.3550  139.1940  153.5140 H   0  0  0  0  0  0  0  0  0  0  0  0
  144.4440  140.9410  154.0700 H   0  0  0  0  0  0  0  0  0  0  0  0
  146.4790  137.9540  152.4220 H   0  0  0  0  0  0  0  0  0  0  0  0
  146.4830  141.3420  154.0260 C   0  0  0  0  0  0  0  0  0  0  0  0
  147.4460  141.9580  154.1910 N   0  0  0  0  0  0  0  0  0  0  0  0
  143.9460  137.5580  152.2790 C   0  0  0  0  0  2  0  0  0  0  0  0
  143.2090  137.8270  150.9720 C   0  0  0  0  0  2  0  0  0  0  0  0
  141.9280  137.0000  150.8830 C   0  0  0  0  0  2  0  0  0  0  0  0
  140.7340  137.7760  151.4180 C   0  0  0  0  0  2  0  0  0  0  0  0
  140.8800  139.2600  151.1000 C   0  0  0  0  0  2  0  0  0  0  0  0
  139.5210  139.9470  151.1110 C   0  0  0  0  0  2  0  0  0  0  0  0
  137.9660  140.4460  149.2090 C   0  0  0  0  0  1  0  0  0  0  0  0
  139.3110  140.7640  149.8410 C   0  0  0  0  0  2  0  0  0  0  0  0
  147.4710  139.6860  151.8550 C   0  0  0  0  0  2  0  0  0  0  0  0
  147.0470  140.3040  150.5480 C   0  0  0  0  0  0  0  0  0  0  0  0
  147.0350  141.6920  150.3820 C   0  0  0  0  0  3  0  0  0  0  0  0
  146.7010  142.2510  149.1470 C   0  0  0  0  0  3  0  0  0  0  0  0
  146.3790  141.4260  148.0630 C   0  0  0  0  0  0  0  0  0  0  0  0
  146.3710  140.0350  148.2090 C   0  0  0  0  0  0  0  0  0  0  0  0
  146.7090  139.4880  149.4560 C   0  0  0  0  0  3  0  0  0  0  0  0
  146.0810  142.0220  146.8700 O   0  0  0  0  0  0  0  0  0  0  0  0
  145.8250  142.9220  146.8480 H   0  0  0  0  0  0  0  0  0  0  0  0
  146.0780  139.0850  147.2670 O   0  0  0  0  0  0  0  0  0  0  0  0
  145.0350  138.1650  147.5600 C   0  0  0  0  0  1  0  0  0  0  0  0
  1  2  1  0  0  0  0
  1  5  1  0  0  0  0
  2  4  1  1  0  0  0
  2  3  1  0  0  0  0
  3  8  1  0  0  0  0
  3  6  1  0  0  0  0
  7  4  1  0  0  0  0
  8  9  3  0  0  0  0
 10  1  1  0  0  0  0
 11 10  1  0  0  0  0
 12 11  1  0  0  0  0
 12 13  1  0  0  0  0
 14 15  1  0  0  0  0
 14 13  1  0  0  0  0
 16 17  1  0  0  0  0
 17 15  1  0  0  0  0
 18  4  1  0  0  0  0
 19 18  1  0  0  0  0
 20 19  1  0  0  0  0
 21 20  2  0  0  0  0
 22 23  2  0  0  0  0
 22 21  1  0  0  0  0
 23 24  1  0  0  0  0
 24 19  2  0  0  0  0
 25 22  1  0  0  0  0
 26 25  1  0  0  0  0
 27 28  1  0  0  0  0
 27 23  1  0  0  0  0
M  END
>  <MODEL>
9

>  <REMARK>
 VINA RESULT:    -5.592      2.354      5.819
 INTER + INTRA:         -10.499
 INTER:                  -9.352
 INTRA:                  -1.147
 UNBOUND:                -1.147
  Name = CHEMBL80954
  14 active torsions:
  status: ('A' for Active; 'I' for Inactive)
    1  A    between atoms: C_1  and  C_2
    2  A    between atoms: C_2  and  C_3
    3  A    between atoms: C_3  and  C_4
    4  A    between atoms: C_4  and  C_5
    5  A    between atoms: C_5  and  C_6
    6  A    between atoms: C_6  and  C_7
    7  A    between atoms: C_7  and  C_8
    8  A    between atoms: C_8  and  N_9
    9  A    between atoms: N_11  and  C_12
   10  A    between atoms: N_14  and  C_15
   11  A    between atoms: C_15  and  C_16
   12  A    between atoms: C_19  and  O_20
   13  A    between atoms: C_21  and  O_22
   14  A    between atoms: O_22  and  C_23
                            x       y       z     vdW  Elec       q    Type
                         _______ _______ _______ _____ _____    ______ ____

>  <TORSDO>
F 12

>  <SCORE>
-5.592

>  <RMSD_LB>
2.354

>  <RMSD_UB>
5.819

$$$$
