CHEMBL3786960
 OpenBabel10172500123D

 27 28  0  0  0  0  0  0  0  0999 V2000
  142.5250  139.6970  150.4320 C   0  0  0  0  0  0  0  0  0  0  0  0
  141.8550  140.3170  149.6190 O   0  0  0  0  0  0  0  0  0  0  0  0
  142.2160  138.4470  150.9110 N   0  0  0  0  0  0  0  0  0  0  0  0
  142.8340  138.0130  151.5430 H   0  0  0  0  0  0  0  0  0  0  0  0
  144.1290  139.9230  152.2860 C   0  0  0  0  0  3  0  0  0  0  0  0
  143.7720  140.2460  151.0320 C   0  0  0  0  0  3  0  0  0  0  0  0
  147.3170  140.0270  154.3660 C   0  0  0  0  0  0  0  0  0  0  0  0
  146.1470  139.5570  153.7580 C   0  0  0  0  0  3  0  0  0  0  0  0
  145.3600  140.3970  152.9510 C   0  0  0  0  0  0  0  0  0  0  0  0
  145.7860  141.7130  152.7310 C   0  0  0  0  0  3  0  0  0  0  0  0
  146.9540  142.1940  153.3290 C   0  0  0  0  0  3  0  0  0  0  0  0
  147.7090  141.3530  154.1440 C   0  0  0  0  0  0  0  0  0  0  0  0
  147.5250  138.3120  156.0120 C   0  0  0  0  0  1  0  0  0  0  0  0
  148.1360  139.2810  155.1740 O   0  0  0  0  0  0  0  0  0  0  0  0
  148.8510  141.8220  154.7370 O   0  0  0  0  0  0  0  0  0  0  0  0
  149.1290  141.4720  155.5610 H   0  0  0  0  0  0  0  0  0  0  0  0
  141.0140  137.7450  150.5160 C   0  0  0  0  0  2  0  0  0  0  0  0
  139.9810  137.7030  151.6140 C   0  0  0  0  0  0  0  0  0  0  0  0
  138.6860  137.2630  151.3440 C   0  0  0  0  0  3  0  0  0  0  0  0
  137.7120  137.2460  152.3480 C   0  0  0  0  0  3  0  0  0  0  0  0
  138.0100  137.6560  153.6560 C   0  0  0  0  0  0  0  0  0  0  0  0
  139.3180  138.0900  153.9450 C   0  0  0  0  0  0  0  0  0  0  0  0
  140.2850  138.1050  152.9220 C   0  0  0  0  0  3  0  0  0  0  0  0
  137.0850  137.6530  154.6650 O   0  0  0  0  0  0  0  0  0  0  0  0
  136.5500  136.4080  155.0940 C   0  0  0  0  0  1  0  0  0  0  0  0
  139.8250  138.5340  155.1400 O   0  0  0  0  0  0  0  0  0  0  0  0
  141.2290  138.7150  155.2680 C   0  0  0  0  0  1  0  0  0  0  0  0
  1  3  1  0  0  0  0
  1  6  1  0  0  0  0
  2  1  2  0  0  0  0
  3  4  1  0  0  0  0
  5  9  1  0  0  0  0
  6  5  2  0  0  0  0
  7 14  1  0  0  0  0
  8  7  2  0  0  0  0
  9  8  1  0  0  0  0
 10  9  2  0  0  0  0
 10 11  1  0  0  0  0
 11 12  2  0  0  0  0
 12  7  1  0  0  0  0
 12 15  1  0  0  0  0
 14 13  1  0  0  0  0
 15 16  1  0  0  0  0
 17  3  1  0  0  0  0
 17 18  1  0  0  0  0
 18 23  1  0  0  0  0
 19 18  2  0  0  0  0
 19 20  1  0  0  0  0
 20 21  2  0  0  0  0
 21 22  1  0  0  0  0
 21 24  1  0  0  0  0
 22 26  1  0  0  0  0
 23 22  2  0  0  0  0
 24 25  1  0  0  0  0
 26 27  1  0  0  0  0
M  END
>  <MODEL>
1

>  <REMARK>
 VINA RESULT:    -7.554      0.000      0.000
 INTER + INTRA:         -11.389
 INTER:                 -10.569
 INTRA:                  -0.820
 UNBOUND:                -0.522
  Name = CHEMBL3786960
  11 active torsions:
  status: ('A' for Active; 'I' for Inactive)
    1  A    between atoms: C_1  and  O_2
    2  A    between atoms: O_2  and  C_3
    3  A    between atoms: C_5  and  C_6
    4  A    between atoms: C_7  and  C_8
    5  A    between atoms: N_10  and  C_11
    6  A    between atoms: C_11  and  C_12
    7  A    between atoms: C_15  and  O_16
    8  A    between atoms: O_16  and  C_17
    9  A    between atoms: C_18  and  O_19
   10  A    between atoms: O_19  and  C_20
   11  A    between atoms: C_24  and  O_25
                            x       y       z     vdW  Elec       q    Type
                         _______ _______ _______ _____ _____    ______ ____

>  <TORSDO>
F 8

>  <SCORE>
-7.554

>  <RMSD_LB>
0.000

>  <RMSD_UB>
0.000

$$$$
CHEMBL3786960
 OpenBabel10172500123D

 27 28  0  0  0  0  0  0  0  0999 V2000
  134.4180  134.9210  152.3760 C   0  0  0  0  0  0  0  0  0  0  0  0
  134.5270  133.7040  152.4100 O   0  0  0  0  0  0  0  0  0  0  0  0
  133.4400  135.6010  151.6920 N   0  0  0  0  0  0  0  0  0  0  0  0
  133.4160  136.5850  151.7480 H   0  0  0  0  0  0  0  0  0  0  0  0
  136.4670  136.2860  152.4440 C   0  0  0  0  0  3  0  0  0  0  0  0
  135.3680  135.8330  153.0710 C   0  0  0  0  0  3  0  0  0  0  0  0
  138.4200  138.3600  154.9700 C   0  0  0  0  0  0  0  0  0  0  0  0
  137.4710  137.4880  154.4230 C   0  0  0  0  0  3  0  0  0  0  0  0
  137.4470  137.2120  153.0440 C   0  0  0  0  0  0  0  0  0  0  0  0
  138.4190  137.7980  152.2230 C   0  0  0  0  0  3  0  0  0  0  0  0
  139.3750  138.6680  152.7570 C   0  0  0  0  0  3  0  0  0  0  0  0
  139.3680  138.9470  154.1220 C   0  0  0  0  0  0  0  0  0  0  0  0
  138.5630  137.6280  157.2360 C   0  0  0  0  0  1  0  0  0  0  0  0
  138.5090  138.6910  156.2970 O   0  0  0  0  0  0  0  0  0  0  0  0
  140.2980  139.8030  154.6480 O   0  0  0  0  0  0  0  0  0  0  0  0
  140.7000  140.4510  154.1040 H   0  0  0  0  0  0  0  0  0  0  0  0
  132.4440  134.9230  150.8910 C   0  0  0  0  0  2  0  0  0  0  0  0
  132.9230  134.6370  149.4910 C   0  0  0  0  0  0  0  0  0  0  0  0
  133.0100  133.3240  149.0320 C   0  0  0  0  0  3  0  0  0  0  0  0
  133.4790  133.0450  147.7440 C   0  0  0  0  0  3  0  0  0  0  0  0
  133.8640  134.0740  146.8730 C   0  0  0  0  0  0  0  0  0  0  0  0
  133.7690  135.4060  147.3190 C   0  0  0  0  0  0  0  0  0  0  0  0
  133.2980  135.6700  148.6190 C   0  0  0  0  0  3  0  0  0  0  0  0
  134.3260  133.8410  145.6050 O   0  0  0  0  0  0  0  0  0  0  0  0
  135.5170  133.0840  145.4430 C   0  0  0  0  0  1  0  0  0  0  0  0
  134.0900  136.5570  146.6450 O   0  0  0  0  0  0  0  0  0  0  0  0
  133.0640  137.4980  146.3600 C   0  0  0  0  0  1  0  0  0  0  0  0
  1  2  2  0  0  0  0
  1  6  1  0  0  0  0
  3  4  1  0  0  0  0
  3  1  1  0  0  0  0
  5  9  1  0  0  0  0
  5  6  2  0  0  0  0
  7 14  1  0  0  0  0
  8  7  1  0  0  0  0
  9  8  2  0  0  0  0
 10 11  2  0  0  0  0
 10  9  1  0  0  0  0
 11 12  1  0  0  0  0
 12 15  1  0  0  0  0
 12  7  2  0  0  0  0
 14 13  1  0  0  0  0
 16 15  1  0  0  0  0
 17  3  1  0  0  0  0
 18 17  1  0  0  0  0
 19 18  1  0  0  0  0
 20 19  2  0  0  0  0
 21 22  2  0  0  0  0
 21 20  1  0  0  0  0
 22 23  1  0  0  0  0
 23 18  2  0  0  0  0
 24 21  1  0  0  0  0
 25 24  1  0  0  0  0
 26 22  1  0  0  0  0
 27 26  1  0  0  0  0
M  END
>  <MODEL>
2

>  <REMARK>
 VINA RESULT:    -7.529      5.535      9.178
 INTER + INTRA:         -11.353
 INTER:                 -10.611
 INTRA:                  -0.742
 UNBOUND:                -0.522
  Name = CHEMBL3786960
  11 active torsions:
  status: ('A' for Active; 'I' for Inactive)
    1  A    between atoms: C_1  and  O_2
    2  A    between atoms: O_2  and  C_3
    3  A    between atoms: C_5  and  C_6
    4  A    between atoms: C_7  and  C_8
    5  A    between atoms: N_10  and  C_11
    6  A    between atoms: C_11  and  C_12
    7  A    between atoms: C_15  and  O_16
    8  A    between atoms: O_16  and  C_17
    9  A    between atoms: C_18  and  O_19
   10  A    between atoms: O_19  and  C_20
   11  A    between atoms: C_24  and  O_25
                            x       y       z     vdW  Elec       q    Type
                         _______ _______ _______ _____ _____    ______ ____

>  <TORSDO>
F 8

>  <SCORE>
-7.529

>  <RMSD_LB>
5.535

>  <RMSD_UB>
9.178

$$$$
CHEMBL3786960
 OpenBabel10172500123D

 27 28  0  0  0  0  0  0  0  0999 V2000
  140.0190  138.4770  155.0160 C   0  0  0  0  0  0  0  0  0  0  0  0
  139.8610  139.6280  154.6380 O   0  0  0  0  0  0  0  0  0  0  0  0
  141.1910  137.7680  154.8980 N   0  0  0  0  0  0  0  0  0  0  0  0
  141.2320  136.8530  155.2600 H   0  0  0  0  0  0  0  0  0  0  0  0
  137.9140  137.2050  154.9020 C   0  0  0  0  0  3  0  0  0  0  0  0
  138.9300  137.6780  155.6420 C   0  0  0  0  0  3  0  0  0  0  0  0
  134.8480  134.9570  155.1190 C   0  0  0  0  0  0  0  0  0  0  0  0
  135.8800  135.7420  154.5920 C   0  0  0  0  0  3  0  0  0  0  0  0
  136.8080  136.3840  155.4320 C   0  0  0  0  0  0  0  0  0  0  0  0
  136.7050  136.1960  156.8160 C   0  0  0  0  0  3  0  0  0  0  0  0
  135.6810  135.4120  157.3560 C   0  0  0  0  0  3  0  0  0  0  0  0
  134.7590  134.8020  156.5090 C   0  0  0  0  0  0  0  0  0  0  0  0
  133.5900  134.8370  153.0960 C   0  0  0  0  0  1  0  0  0  0  0  0
  133.8990  134.3050  154.3760 O   0  0  0  0  0  0  0  0  0  0  0  0
  133.7500  134.0380  157.0340 O   0  0  0  0  0  0  0  0  0  0  0  0
  133.9160  133.4860  157.7710 H   0  0  0  0  0  0  0  0  0  0  0  0
  142.3670  138.3210  154.2620 C   0  0  0  0  0  2  0  0  0  0  0  0
  142.5690  137.7970  152.8630 C   0  0  0  0  0  0  0  0  0  0  0  0
  141.4700  137.4780  152.0660 C   0  0  0  0  0  3  0  0  0  0  0  0
  141.6460  136.9650  150.7770 C   0  0  0  0  0  3  0  0  0  0  0  0
  142.9270  136.7670  150.2430 C   0  0  0  0  0  0  0  0  0  0  0  0
  144.0450  137.0970  151.0320 C   0  0  0  0  0  0  0  0  0  0  0  0
  143.8510  137.6100  152.3290 C   0  0  0  0  0  3  0  0  0  0  0  0
  143.1390  136.2690  148.9850 O   0  0  0  0  0  0  0  0  0  0  0  0
  142.4210  135.1110  148.5810 C   0  0  0  0  0  1  0  0  0  0  0  0
  145.3760  136.9840  150.7170 O   0  0  0  0  0  0  0  0  0  0  0  0
  146.1250  135.9080  151.2630 C   0  0  0  0  0  1  0  0  0  0  0  0
  1  6  1  0  0  0  0
  2  1  2  0  0  0  0
  3  1  1  0  0  0  0
  3  4  1  0  0  0  0
  5  9  1  0  0  0  0
  5  6  2  0  0  0  0
  7 12  1  0  0  0  0
  8  7  2  0  0  0  0
  8  9  1  0  0  0  0
  9 10  2  0  0  0  0
 10 11  1  0  0  0  0
 12 15  1  0  0  0  0
 12 11  2  0  0  0  0
 13 14  1  0  0  0  0
 14  7  1  0  0  0  0
 15 16  1  0  0  0  0
 17  3  1  0  0  0  0
 18 17  1  0  0  0  0
 19 18  2  0  0  0  0
 20 19  1  0  0  0  0
 21 20  2  0  0  0  0
 21 22  1  0  0  0  0
 22 23  2  0  0  0  0
 23 18  1  0  0  0  0
 24 21  1  0  0  0  0
 25 24  1  0  0  0  0
 26 22  1  0  0  0  0
 26 27  1  0  0  0  0
M  END
>  <MODEL>
3

>  <REMARK>
 VINA RESULT:    -7.385      3.675      9.449
 INTER + INTRA:         -11.144
 INTER:                 -10.548
 INTRA:                  -0.596
 UNBOUND:                -0.522
  Name = CHEMBL3786960
  11 active torsions:
  status: ('A' for Active; 'I' for Inactive)
    1  A    between atoms: C_1  and  O_2
    2  A    between atoms: O_2  and  C_3
    3  A    between atoms: C_5  and  C_6
    4  A    between atoms: C_7  and  C_8
    5  A    between atoms: N_10  and  C_11
    6  A    between atoms: C_11  and  C_12
    7  A    between atoms: C_15  and  O_16
    8  A    between atoms: O_16  and  C_17
    9  A    between atoms: C_18  and  O_19
   10  A    between atoms: O_19  and  C_20
   11  A    between atoms: C_24  and  O_25
                            x       y       z     vdW  Elec       q    Type
                         _______ _______ _______ _____ _____    ______ ____

>  <TORSDO>
F 8

>  <SCORE>
-7.385

>  <RMSD_LB>
3.675

>  <RMSD_UB>
9.449

$$$$
CHEMBL3786960
 OpenBabel10172500123D

 27 28  0  0  0  0  0  0  0  0999 V2000
  135.5960  134.8080  152.1630 C   0  0  0  0  0  0  0  0  0  0  0  0
  136.2340  134.3740  151.2150 O   0  0  0  0  0  0  0  0  0  0  0  0
  134.2360  134.6830  152.3150 N   0  0  0  0  0  0  0  0  0  0  0  0
  133.8130  135.0410  153.1300 H   0  0  0  0  0  0  0  0  0  0  0  0
  135.6820  135.5520  154.5090 C   0  0  0  0  0  3  0  0  0  0  0  0
  136.2290  135.5600  153.2820 C   0  0  0  0  0  3  0  0  0  0  0  0
  136.6080  136.4600  158.0890 C   0  0  0  0  0  0  0  0  0  0  0  0
  136.0430  135.7930  156.9950 C   0  0  0  0  0  3  0  0  0  0  0  0
  136.2530  136.2450  155.6810 C   0  0  0  0  0  0  0  0  0  0  0  0
  137.0730  137.3620  155.4760 C   0  0  0  0  0  3  0  0  0  0  0  0
  137.6460  138.0360  156.5580 C   0  0  0  0  0  3  0  0  0  0  0  0
  137.4070  137.5860  157.8550 C   0  0  0  0  0  0  0  0  0  0  0  0
  135.1770  136.3210  159.9940 C   0  0  0  0  0  1  0  0  0  0  0  0
  136.4470  136.0940  159.4000 O   0  0  0  0  0  0  0  0  0  0  0  0
  137.9610  138.2460  158.9200 O   0  0  0  0  0  0  0  0  0  0  0  0
  138.8920  138.3220  158.9910 H   0  0  0  0  0  0  0  0  0  0  0  0
  133.4030  134.0450  151.3190 C   0  0  0  0  0  2  0  0  0  0  0  0
  133.2200  134.8940  150.0870 C   0  0  0  0  0  0  0  0  0  0  0  0
  132.7730  136.2100  150.2000 C   0  0  0  0  0  3  0  0  0  0  0  0
  132.5730  136.9980  149.0620 C   0  0  0  0  0  3  0  0  0  0  0  0
  132.8270  136.4970  147.7770 C   0  0  0  0  0  0  0  0  0  0  0  0
  133.2910  135.1740  147.6500 C   0  0  0  0  0  0  0  0  0  0  0  0
  133.4840  134.3920  148.8050 C   0  0  0  0  0  3  0  0  0  0  0  0
  132.6440  137.2380  146.6410 O   0  0  0  0  0  0  0  0  0  0  0  0
  133.7820  137.8110  146.0120 C   0  0  0  0  0  1  0  0  0  0  0  0
  133.5980  134.4830  146.5040 O   0  0  0  0  0  0  0  0  0  0  0  0
  134.8600  133.8390  146.4040 C   0  0  0  0  0  1  0  0  0  0  0  0
  1  3  1  0  0  0  0
  1  6  1  0  0  0  0
  2  1  2  0  0  0  0
  3  4  1  0  0  0  0
  5  9  1  0  0  0  0
  6  5  2  0  0  0  0
  7 14  1  0  0  0  0
  8  7  2  0  0  0  0
  9  8  1  0  0  0  0
 10  9  2  0  0  0  0
 10 11  1  0  0  0  0
 11 12  2  0  0  0  0
 12  7  1  0  0  0  0
 12 15  1  0  0  0  0
 14 13  1  0  0  0  0
 15 16  1  0  0  0  0
 17  3  1  0  0  0  0
 18 19  1  0  0  0  0
 18 17  1  0  0  0  0
 20 19  2  0  0  0  0
 21 20  1  0  0  0  0
 22 21  2  0  0  0  0
 22 23  1  0  0  0  0
 23 18  2  0  0  0  0
 24 21  1  0  0  0  0
 25 24  1  0  0  0  0
 26 22  1  0  0  0  0
 27 26  1  0  0  0  0
M  END
>  <MODEL>
4

>  <REMARK>
 VINA RESULT:    -7.272      7.640      9.984
 INTER + INTRA:         -10.982
 INTER:                 -10.350
 INTRA:                  -0.632
 UNBOUND:                -0.522
  Name = CHEMBL3786960
  11 active torsions:
  status: ('A' for Active; 'I' for Inactive)
    1  A    between atoms: C_1  and  O_2
    2  A    between atoms: O_2  and  C_3
    3  A    between atoms: C_5  and  C_6
    4  A    between atoms: C_7  and  C_8
    5  A    between atoms: N_10  and  C_11
    6  A    between atoms: C_11  and  C_12
    7  A    between atoms: C_15  and  O_16
    8  A    between atoms: O_16  and  C_17
    9  A    between atoms: C_18  and  O_19
   10  A    between atoms: O_19  and  C_20
   11  A    between atoms: C_24  and  O_25
                            x       y       z     vdW  Elec       q    Type
                         _______ _______ _______ _____ _____    ______ ____

>  <TORSDO>
F 8

>  <SCORE>
-7.272

>  <RMSD_LB>
7.640

>  <RMSD_UB>
9.984

$$$$
CHEMBL3786960
 OpenBabel10172500123D

 27 28  0  0  0  0  0  0  0  0999 V2000
  134.8850  134.9000  152.2810 C   0  0  0  0  0  0  0  0  0  0  0  0
  135.4220  133.9800  151.6820 O   0  0  0  0  0  0  0  0  0  0  0  0
  133.5840  135.3020  152.0950 N   0  0  0  0  0  0  0  0  0  0  0  0
  133.2300  136.0370  152.6480 H   0  0  0  0  0  0  0  0  0  0  0  0
  135.7860  135.2740  154.5420 C   0  0  0  0  0  3  0  0  0  0  0  0
  135.6000  135.7280  153.2910 C   0  0  0  0  0  3  0  0  0  0  0  0
  138.2400  137.5710  156.3320 C   0  0  0  0  0  0  0  0  0  0  0  0
  137.5830  136.8690  155.3130 C   0  0  0  0  0  3  0  0  0  0  0  0
  136.5040  136.0140  155.5990 C   0  0  0  0  0  0  0  0  0  0  0  0
  136.0680  135.9000  156.9240 C   0  0  0  0  0  3  0  0  0  0  0  0
  136.7110  136.5970  157.9510 C   0  0  0  0  0  3  0  0  0  0  0  0
  137.7930  137.4220  157.6510 C   0  0  0  0  0  0  0  0  0  0  0  0
  140.1140  138.2040  154.9980 C   0  0  0  0  0  1  0  0  0  0  0  0
  139.3030  138.4150  156.1440 O   0  0  0  0  0  0  0  0  0  0  0  0
  138.4320  138.1020  158.6540 O   0  0  0  0  0  0  0  0  0  0  0  0
  138.5360  137.7060  159.4960 H   0  0  0  0  0  0  0  0  0  0  0  0
  132.7170  134.6830  151.1170 C   0  0  0  0  0  2  0  0  0  0  0  0
  132.9370  135.2210  149.7260 C   0  0  0  0  0  0  0  0  0  0  0  0
  132.6910  136.5640  149.4440 C   0  0  0  0  0  3  0  0  0  0  0  0
  132.8650  137.0680  148.1510 C   0  0  0  0  0  3  0  0  0  0  0  0
  133.3030  136.2440  147.1040 C   0  0  0  0  0  0  0  0  0  0  0  0
  133.5680  134.8890  147.3770 C   0  0  0  0  0  0  0  0  0  0  0  0
  133.3840  134.3960  148.6840 C   0  0  0  0  0  3  0  0  0  0  0  0
  133.4860  136.7010  145.8260 O   0  0  0  0  0  0  0  0  0  0  0  0
  133.4350  138.1000  145.5890 C   0  0  0  0  0  1  0  0  0  0  0  0
  133.9970  133.9120  146.5150 O   0  0  0  0  0  0  0  0  0  0  0  0
  135.1310  133.1320  146.8660 C   0  0  0  0  0  1  0  0  0  0  0  0
  1  6  1  0  0  0  0
  2  1  2  0  0  0  0
  3  1  1  0  0  0  0
  3  4  1  0  0  0  0
  5  9  1  0  0  0  0
  6  5  2  0  0  0  0
  7 12  1  0  0  0  0
  8  9  1  0  0  0  0
  8  7  2  0  0  0  0
  9 10  2  0  0  0  0
 10 11  1  0  0  0  0
 12 11  2  0  0  0  0
 12 15  1  0  0  0  0
 13 14  1  0  0  0  0
 14  7  1  0  0  0  0
 15 16  1  0  0  0  0
 17  3  1  0  0  0  0
 18 17  1  0  0  0  0
 19 18  1  0  0  0  0
 20 19  2  0  0  0  0
 21 22  2  0  0  0  0
 21 20  1  0  0  0  0
 22 23  1  0  0  0  0
 23 18  2  0  0  0  0
 24 21  1  0  0  0  0
 25 24  1  0  0  0  0
 26 27  1  0  0  0  0
 26 22  1  0  0  0  0
M  END
>  <MODEL>
5

>  <REMARK>
 VINA RESULT:    -7.250      5.864      9.682
 INTER + INTRA:         -10.951
 INTER:                 -10.337
 INTRA:                  -0.614
 UNBOUND:                -0.522
  Name = CHEMBL3786960
  11 active torsions:
  status: ('A' for Active; 'I' for Inactive)
    1  A    between atoms: C_1  and  O_2
    2  A    between atoms: O_2  and  C_3
    3  A    between atoms: C_5  and  C_6
    4  A    between atoms: C_7  and  C_8
    5  A    between atoms: N_10  and  C_11
    6  A    between atoms: C_11  and  C_12
    7  A    between atoms: C_15  and  O_16
    8  A    between atoms: O_16  and  C_17
    9  A    between atoms: C_18  and  O_19
   10  A    between atoms: O_19  and  C_20
   11  A    between atoms: C_24  and  O_25
                            x       y       z     vdW  Elec       q    Type
                         _______ _______ _______ _____ _____    ______ ____

>  <TORSDO>
F 8

>  <SCORE>
-7.250

>  <RMSD_LB>
5.864

>  <RMSD_UB>
9.682

$$$$
CHEMBL3786960
 OpenBabel10172500123D

 27 28  0  0  0  0  0  0  0  0999 V2000
  139.4020  138.5160  154.5600 C   0  0  0  0  0  0  0  0  0  0  0  0
  139.4060  139.7380  154.5250 O   0  0  0  0  0  0  0  0  0  0  0  0
  140.5030  137.7220  154.3480 N   0  0  0  0  0  0  0  0  0  0  0  0
  140.4080  136.7450  154.4260 H   0  0  0  0  0  0  0  0  0  0  0  0
  138.0480  136.9930  155.9430 C   0  0  0  0  0  3  0  0  0  0  0  0
  138.1690  137.7230  154.8210 C   0  0  0  0  0  3  0  0  0  0  0  0
  135.3500  135.1940  157.9400 C   0  0  0  0  0  0  0  0  0  0  0  0
  136.4950  135.9380  157.6300 C   0  0  0  0  0  3  0  0  0  0  0  0
  136.8540  136.2000  156.2960 C   0  0  0  0  0  0  0  0  0  0  0  0
  136.0210  135.7330  155.2710 C   0  0  0  0  0  3  0  0  0  0  0  0
  134.8730  134.9920  155.5660 C   0  0  0  0  0  3  0  0  0  0  0  0
  134.5470  134.7240  156.8930 C   0  0  0  0  0  0  0  0  0  0  0  0
  134.2410  135.8900  159.9340 C   0  0  0  0  0  1  0  0  0  0  0  0
  134.9330  134.8860  159.2080 O   0  0  0  0  0  0  0  0  0  0  0  0
  133.4260  133.9930  157.1870 O   0  0  0  0  0  0  0  0  0  0  0  0
  132.6370  134.1290  156.7000 H   0  0  0  0  0  0  0  0  0  0  0  0
  141.7990  138.2730  154.0130 C   0  0  0  0  0  2  0  0  0  0  0  0
  142.3290  137.7510  152.7020 C   0  0  0  0  0  0  0  0  0  0  0  0
  141.4490  137.3520  151.6970 C   0  0  0  0  0  3  0  0  0  0  0  0
  141.9290  136.8400  150.4870 C   0  0  0  0  0  3  0  0  0  0  0  0
  143.3050  136.7240  150.2430 C   0  0  0  0  0  0  0  0  0  0  0  0
  144.2050  137.1360  151.2440 C   0  0  0  0  0  0  0  0  0  0  0  0
  143.7050  137.6460  152.4580 C   0  0  0  0  0  3  0  0  0  0  0  0
  143.8130  136.2300  149.0710 O   0  0  0  0  0  0  0  0  0  0  0  0
  143.6360  136.9840  147.8800 C   0  0  0  0  0  1  0  0  0  0  0  0
  145.5770  137.1100  151.2230 O   0  0  0  0  0  0  0  0  0  0  0  0
  146.2460  135.8790  151.4530 C   0  0  0  0  0  1  0  0  0  0  0  0
  1  6  1  0  0  0  0
  2  1  2  0  0  0  0
  3  4  1  0  0  0  0
  3  1  1  0  0  0  0
  5  9  1  0  0  0  0
  6  5  2  0  0  0  0
  7 14  1  0  0  0  0
  8  7  1  0  0  0  0
  9  8  2  0  0  0  0
 10 11  2  0  0  0  0
 10  9  1  0  0  0  0
 11 12  1  0  0  0  0
 12 15  1  0  0  0  0
 12  7  2  0  0  0  0
 14 13  1  0  0  0  0
 16 15  1  0  0  0  0
 17  3  1  0  0  0  0
 18 17  1  0  0  0  0
 19 18  2  0  0  0  0
 20 19  1  0  0  0  0
 21 20  2  0  0  0  0
 21 22  1  0  0  0  0
 22 23  2  0  0  0  0
 23 18  1  0  0  0  0
 24 21  1  0  0  0  0
 25 24  1  0  0  0  0
 26 22  1  0  0  0  0
 26 27  1  0  0  0  0
M  END
>  <MODEL>
6

>  <REMARK>
 VINA RESULT:    -7.158      3.613      9.545
 INTER + INTRA:         -10.819
 INTER:                 -10.238
 INTRA:                  -0.580
 UNBOUND:                -0.522
  Name = CHEMBL3786960
  11 active torsions:
  status: ('A' for Active; 'I' for Inactive)
    1  A    between atoms: C_1  and  O_2
    2  A    between atoms: O_2  and  C_3
    3  A    between atoms: C_5  and  C_6
    4  A    between atoms: C_7  and  C_8
    5  A    between atoms: N_10  and  C_11
    6  A    between atoms: C_11  and  C_12
    7  A    between atoms: C_15  and  O_16
    8  A    between atoms: O_16  and  C_17
    9  A    between atoms: C_18  and  O_19
   10  A    between atoms: O_19  and  C_20
   11  A    between atoms: C_24  and  O_25
                            x       y       z     vdW  Elec       q    Type
                         _______ _______ _______ _____ _____    ______ ____

>  <TORSDO>
F 8

>  <SCORE>
-7.158

>  <RMSD_LB>
3.613

>  <RMSD_UB>
9.545

$$$$
CHEMBL3786960
 OpenBabel10172500123D

 27 28  0  0  0  0  0  0  0  0999 V2000
  137.3280  136.9550  152.4900 C   0  0  0  0  0  0  0  0  0  0  0  0
  136.9240  137.0360  153.6410 O   0  0  0  0  0  0  0  0  0  0  0  0
  138.5250  137.4600  152.0430 N   0  0  0  0  0  0  0  0  0  0  0  0
  138.7790  137.3190  151.1020 H   0  0  0  0  0  0  0  0  0  0  0  0
  135.2660  135.9380  151.6080 C   0  0  0  0  0  3  0  0  0  0  0  0
  136.5420  136.3040  151.4050 C   0  0  0  0  0  3  0  0  0  0  0  0
  133.2130  135.3710  148.4510 C   0  0  0  0  0  0  0  0  0  0  0  0
  134.0190  135.9910  149.4140 C   0  0  0  0  0  3  0  0  0  0  0  0
  134.4050  135.3130  150.5840 C   0  0  0  0  0  0  0  0  0  0  0  0
  134.0000  133.9840  150.7580 C   0  0  0  0  0  3  0  0  0  0  0  0
  133.1980  133.3510  149.8030 C   0  0  0  0  0  3  0  0  0  0  0  0
  132.8070  134.0470  148.6610 C   0  0  0  0  0  0  0  0  0  0  0  0
  132.8260  137.3760  147.2180 C   0  0  0  0  0  1  0  0  0  0  0  0
  132.7830  135.9590  147.2900 O   0  0  0  0  0  0  0  0  0  0  0  0
  132.0160  133.4330  147.7250 O   0  0  0  0  0  0  0  0  0  0  0  0
  131.5850  133.9440  147.0690 H   0  0  0  0  0  0  0  0  0  0  0  0
  139.4260  138.1900  152.9080 C   0  0  0  0  0  2  0  0  0  0  0  0
  140.8750  137.9140  152.6000 C   0  0  0  0  0  0  0  0  0  0  0  0
  141.2350  137.3030  151.3990 C   0  0  0  0  0  3  0  0  0  0  0  0
  142.5740  137.0170  151.1150 C   0  0  0  0  0  3  0  0  0  0  0  0
  143.5950  137.3450  152.0190 C   0  0  0  0  0  0  0  0  0  0  0  0
  143.2470  137.9740  153.2290 C   0  0  0  0  0  0  0  0  0  0  0  0
  141.8940  138.2530  153.5020 C   0  0  0  0  0  3  0  0  0  0  0  0
  144.9160  137.0830  151.7760 O   0  0  0  0  0  0  0  0  0  0  0  0
  145.2550  136.2680  150.6630 C   0  0  0  0  0  1  0  0  0  0  0  0
  144.0710  138.3780  154.2500 O   0  0  0  0  0  0  0  0  0  0  0  0
  143.7970  139.6030  154.9140 C   0  0  0  0  0  1  0  0  0  0  0  0
  1  2  2  0  0  0  0
  3  1  1  0  0  0  0
  3 17  1  0  0  0  0
  4  3  1  0  0  0  0
  6  5  2  0  0  0  0
  6  1  1  0  0  0  0
  7 12  2  0  0  0  0
  7  8  1  0  0  0  0
  8  9  2  0  0  0  0
  9 10  1  0  0  0  0
  9  5  1  0  0  0  0
 11 10  2  0  0  0  0
 12 11  1  0  0  0  0
 13 14  1  0  0  0  0
 14  7  1  0  0  0  0
 15 12  1  0  0  0  0
 16 15  1  0  0  0  0
 18 17  1  0  0  0  0
 18 23  1  0  0  0  0
 19 18  2  0  0  0  0
 20 19  1  0  0  0  0
 20 21  2  0  0  0  0
 21 22  1  0  0  0  0
 22 23  2  0  0  0  0
 22 26  1  0  0  0  0
 24 21  1  0  0  0  0
 25 24  1  0  0  0  0
 26 27  1  0  0  0  0
M  END
>  <MODEL>
7

>  <REMARK>
 VINA RESULT:    -7.155      4.612     10.835
 INTER + INTRA:         -10.814
 INTER:                 -10.291
 INTRA:                  -0.522
 UNBOUND:                -0.522
  Name = CHEMBL3786960
  11 active torsions:
  status: ('A' for Active; 'I' for Inactive)
    1  A    between atoms: C_1  and  O_2
    2  A    between atoms: O_2  and  C_3
    3  A    between atoms: C_5  and  C_6
    4  A    between atoms: C_7  and  C_8
    5  A    between atoms: N_10  and  C_11
    6  A    between atoms: C_11  and  C_12
    7  A    between atoms: C_15  and  O_16
    8  A    between atoms: O_16  and  C_17
    9  A    between atoms: C_18  and  O_19
   10  A    between atoms: O_19  and  C_20
   11  A    between atoms: C_24  and  O_25
                            x       y       z     vdW  Elec       q    Type
                         _______ _______ _______ _____ _____    ______ ____

>  <TORSDO>
F 8

>  <SCORE>
-7.155

>  <RMSD_LB>
4.612

>  <RMSD_UB>
10.835

$$$$
CHEMBL3786960
 OpenBabel10172500123D

 27 28  0  0  0  0  0  0  0  0999 V2000
  139.9550  138.5010  154.8710 C   0  0  0  0  0  0  0  0  0  0  0  0
  139.5760  139.6300  154.5940 O   0  0  0  0  0  0  0  0  0  0  0  0
  139.1250  137.4410  155.1440 N   0  0  0  0  0  0  0  0  0  0  0  0
  139.5240  136.5590  155.3290 H   0  0  0  0  0  0  0  0  0  0  0  0
  142.2830  138.6060  154.0740 C   0  0  0  0  0  3  0  0  0  0  0  0
  141.3960  138.1380  154.9690 C   0  0  0  0  0  3  0  0  0  0  0  0
  146.0440  138.9880  154.5320 C   0  0  0  0  0  0  0  0  0  0  0  0
  144.6770  139.2880  154.4930 C   0  0  0  0  0  3  0  0  0  0  0  0
  143.7310  138.3200  154.1100 C   0  0  0  0  0  0  0  0  0  0  0  0
  144.1770  137.0290  153.7980 C   0  0  0  0  0  3  0  0  0  0  0  0
  145.5380  136.7150  153.8360 C   0  0  0  0  0  3  0  0  0  0  0  0
  146.4620  137.6940  154.1970 C   0  0  0  0  0  0  0  0  0  0  0  0
  147.3210  140.9260  153.9800 C   0  0  0  0  0  1  0  0  0  0  0  0
  147.0320  139.8710  154.8840 O   0  0  0  0  0  0  0  0  0  0  0  0
  147.7980  137.3930  154.2290 O   0  0  0  0  0  0  0  0  0  0  0  0
  148.2480  137.1740  153.4370 H   0  0  0  0  0  0  0  0  0  0  0  0
  137.6850  137.5750  155.1710 C   0  0  0  0  0  2  0  0  0  0  0  0
  137.0710  136.9790  156.4120 C   0  0  0  0  0  0  0  0  0  0  0  0
  136.1640  135.9250  156.3110 C   0  0  0  0  0  3  0  0  0  0  0  0
  135.5670  135.3830  157.4540 C   0  0  0  0  0  3  0  0  0  0  0  0
  135.8690  135.8720  158.7330 C   0  0  0  0  0  0  0  0  0  0  0  0
  136.7940  136.9270  158.8500 C   0  0  0  0  0  0  0  0  0  0  0  0
  137.3840  137.4640  157.6900 C   0  0  0  0  0  3  0  0  0  0  0  0
  135.3070  135.3660  159.8740 O   0  0  0  0  0  0  0  0  0  0  0  0
  133.9570  135.6940  160.1710 C   0  0  0  0  0  1  0  0  0  0  0  0
  137.2310  137.5570  159.9880 O   0  0  0  0  0  0  0  0  0  0  0  0
  136.5160  138.6860  160.4700 C   0  0  0  0  0  1  0  0  0  0  0  0
  1  6  1  0  0  0  0
  1  3  1  0  0  0  0
  2  1  2  0  0  0  0
  3 17  1  0  0  0  0
  3  4  1  0  0  0  0
  5  9  1  0  0  0  0
  5  6  2  0  0  0  0
  7 14  1  0  0  0  0
  8  7  1  0  0  0  0
  9  8  2  0  0  0  0
 10 11  2  0  0  0  0
 10  9  1  0  0  0  0
 11 12  1  0  0  0  0
 12 15  1  0  0  0  0
 12  7  2  0  0  0  0
 13 14  1  0  0  0  0
 16 15  1  0  0  0  0
 17 18  1  0  0  0  0
 18 23  1  0  0  0  0
 19 18  2  0  0  0  0
 19 20  1  0  0  0  0
 20 21  2  0  0  0  0
 21 22  1  0  0  0  0
 21 24  1  0  0  0  0
 22 26  1  0  0  0  0
 23 22  2  0  0  0  0
 24 25  1  0  0  0  0
 26 27  1  0  0  0  0
M  END
>  <MODEL>
8

>  <REMARK>
 VINA RESULT:    -7.130      3.197      4.974
 INTER + INTRA:         -10.778
 INTER:                 -10.174
 INTRA:                  -0.604
 UNBOUND:                -0.522
  Name = CHEMBL3786960
  11 active torsions:
  status: ('A' for Active; 'I' for Inactive)
    1  A    between atoms: C_1  and  O_2
    2  A    between atoms: O_2  and  C_3
    3  A    between atoms: C_5  and  C_6
    4  A    between atoms: C_7  and  C_8
    5  A    between atoms: N_10  and  C_11
    6  A    between atoms: C_11  and  C_12
    7  A    between atoms: C_15  and  O_16
    8  A    between atoms: O_16  and  C_17
    9  A    between atoms: C_18  and  O_19
   10  A    between atoms: O_19  and  C_20
   11  A    between atoms: C_24  and  O_25
                            x       y       z     vdW  Elec       q    Type
                         _______ _______ _______ _____ _____    ______ ____

>  <TORSDO>
F 8

>  <SCORE>
-7.130

>  <RMSD_LB>
3.197

>  <RMSD_UB>
4.974

$$$$
CHEMBL3786960
 OpenBabel10172500123D

 27 28  0  0  0  0  0  0  0  0999 V2000
  139.9840  138.6170  154.4290 C   0  0  0  0  0  0  0  0  0  0  0  0
  140.4530  139.6370  154.9110 O   0  0  0  0  0  0  0  0  0  0  0  0
  140.3460  138.0860  153.2150 N   0  0  0  0  0  0  0  0  0  0  0  0
  139.9330  137.2410  152.9230 H   0  0  0  0  0  0  0  0  0  0  0  0
  137.8980  137.3090  154.4080 C   0  0  0  0  0  3  0  0  0  0  0  0
  138.9240  137.8210  155.1070 C   0  0  0  0  0  3  0  0  0  0  0  0
  134.8680  135.0310  154.7720 C   0  0  0  0  0  0  0  0  0  0  0  0
  135.8740  135.8160  154.1950 C   0  0  0  0  0  3  0  0  0  0  0  0
  136.8190  136.4870  154.9910 C   0  0  0  0  0  0  0  0  0  0  0  0
  136.7620  136.3290  156.3810 C   0  0  0  0  0  3  0  0  0  0  0  0
  135.7650  135.5460  156.9710 C   0  0  0  0  0  3  0  0  0  0  0  0
  134.8240  134.9070  156.1660 C   0  0  0  0  0  0  0  0  0  0  0  0
  133.5100  134.8820  152.8160 C   0  0  0  0  0  1  0  0  0  0  0  0
  133.9040  134.3520  154.0730 O   0  0  0  0  0  0  0  0  0  0  0  0
  133.8420  134.1430  156.7390 O   0  0  0  0  0  0  0  0  0  0  0  0
  132.9730  134.1590  156.3900 H   0  0  0  0  0  0  0  0  0  0  0  0
  141.3130  138.7250  152.3500 C   0  0  0  0  0  2  0  0  0  0  0  0
  142.7310  138.5310  152.8240 C   0  0  0  0  0  0  0  0  0  0  0  0
  143.1270  137.3150  153.3800 C   0  0  0  0  0  3  0  0  0  0  0  0
  144.4320  137.1330  153.8480 C   0  0  0  0  0  3  0  0  0  0  0  0
  145.3840  138.1590  153.7640 C   0  0  0  0  0  0  0  0  0  0  0  0
  145.0010  139.3880  153.1930 C   0  0  0  0  0  0  0  0  0  0  0  0
  143.6830  139.5570  152.7290 C   0  0  0  0  0  3  0  0  0  0  0  0
  146.6700  138.0180  154.2100 O   0  0  0  0  0  0  0  0  0  0  0  0
  146.9880  138.4570  155.5240 C   0  0  0  0  0  1  0  0  0  0  0  0
  145.7580  140.5190  153.0140 O   0  0  0  0  0  0  0  0  0  0  0  0
  146.6790  140.5670  151.9340 C   0  0  0  0  0  1  0  0  0  0  0  0
  1  2  2  0  0  0  0
  1  6  1  0  0  0  0
  3  1  1  0  0  0  0
  4  3  1  0  0  0  0
  5  9  1  0  0  0  0
  5  6  2  0  0  0  0
  7 12  1  0  0  0  0
  8  7  2  0  0  0  0
  8  9  1  0  0  0  0
  9 10  2  0  0  0  0
 10 11  1  0  0  0  0
 12 15  1  0  0  0  0
 12 11  2  0  0  0  0
 13 14  1  0  0  0  0
 14  7  1  0  0  0  0
 16 15  1  0  0  0  0
 17 18  1  0  0  0  0
 17  3  1  0  0  0  0
 18 19  1  0  0  0  0
 19 20  2  0  0  0  0
 21 20  1  0  0  0  0
 21 24  1  0  0  0  0
 22 21  2  0  0  0  0
 23 18  2  0  0  0  0
 23 22  1  0  0  0  0
 24 25  1  0  0  0  0
 26 22  1  0  0  0  0
 27 26  1  0  0  0  0
M  END
>  <MODEL>
9

>  <REMARK>
 VINA RESULT:    -7.108      2.420      9.562
 INTER + INTRA:         -10.747
 INTER:                 -10.171
 INTRA:                  -0.576
 UNBOUND:                -0.522
  Name = CHEMBL3786960
  11 active torsions:
  status: ('A' for Active; 'I' for Inactive)
    1  A    between atoms: C_1  and  O_2
    2  A    between atoms: O_2  and  C_3
    3  A    between atoms: C_5  and  C_6
    4  A    between atoms: C_7  and  C_8
    5  A    between atoms: N_10  and  C_11
    6  A    between atoms: C_11  and  C_12
    7  A    between atoms: C_15  and  O_16
    8  A    between atoms: O_16  and  C_17
    9  A    between atoms: C_18  and  O_19
   10  A    between atoms: O_19  and  C_20
   11  A    between atoms: C_24  and  O_25
                            x       y       z     vdW  Elec       q    Type
                         _______ _______ _______ _____ _____    ______ ____

>  <TORSDO>
F 8

>  <SCORE>
-7.108

>  <RMSD_LB>
2.420

>  <RMSD_UB>
9.562

$$$$
