CHEMBL4437828
 OpenBabel10172500293D

 29 30  0  0  0  0  0  0  0  0999 V2000
  134.0150  135.1830  152.2560 N   0  0  0  0  0  0  0  0  0  0  0  0
  134.5430  134.6120  153.3860 C   0  0  0  0  0  0  0  0  0  0  0  0
  134.0970  133.6080  153.9240 O   0  0  0  0  0  0  0  0  0  0  0  0
  134.4330  135.9950  151.8870 H   0  0  0  0  0  0  0  0  0  0  0  0
  135.7330  135.3370  153.9080 C   0  0  0  0  0  3  0  0  0  0  0  0
  136.2970  136.2940  153.1520 C   0  0  0  0  0  3  0  0  0  0  0  0
  137.4200  137.1170  153.6130 C   0  0  0  0  0  0  0  0  0  0  0  0
  137.5650  137.2090  155.0160 C   0  0  0  0  0  3  0  0  0  0  0  0
  138.6070  137.9330  155.6180 C   0  0  0  0  0  0  0  0  0  0  0  0
  139.5330  138.5830  154.7920 C   0  0  0  0  0  0  0  0  0  0  0  0
  139.3920  138.4850  153.3980 C   0  0  0  0  0  3  0  0  0  0  0  0
  138.3480  137.7700  152.7950 C   0  0  0  0  0  0  0  0  0  0  0  0
  138.7680  138.0250  156.9730 O   0  0  0  0  0  0  0  0  0  0  0  0
  137.6560  137.7670  157.8180 C   0  0  0  0  0  1  0  0  0  0  0  0
  140.6210  139.3370  155.1540 O   0  0  0  0  0  0  0  0  0  0  0  0
  141.9040  138.9890  154.6510 C   0  0  0  0  0  1  0  0  0  0  0  0
  138.4350  137.7430  151.4290 O   0  0  0  0  0  0  0  0  0  0  0  0
  139.0250  138.8580  150.7740 C   0  0  0  0  0  1  0  0  0  0  0  0
  132.8560  134.6230  151.5920 C   0  0  0  0  0  2  0  0  0  0  0  0
  133.0840  135.1400  147.8120 C   0  0  0  0  0  0  0  0  0  0  0  0
  132.8350  135.3560  149.1720 C   0  0  0  0  0  3  0  0  0  0  0  0
  133.1000  134.3560  150.1280 C   0  0  0  0  0  0  0  0  0  0  0  0
  133.5940  133.1180  149.6940 C   0  0  0  0  0  3  0  0  0  0  0  0
  133.8430  132.8890  148.3400 C   0  0  0  0  0  3  0  0  0  0  0  0
  133.5900  133.8940  147.4110 C   0  0  0  0  0  0  0  0  0  0  0  0
  133.7210  137.2010  146.7970 C   0  0  0  0  0  1  0  0  0  0  0  0
  132.8760  136.0580  146.8170 O   0  0  0  0  0  0  0  0  0  0  0  0
  133.8360  133.6670  146.0810 O   0  0  0  0  0  0  0  0  0  0  0  0
  133.3370  133.0250  145.6150 H   0  0  0  0  0  0  0  0  0  0  0  0
  1  2  1  0  0  0  0
  2  5  1  0  0  0  0
  2  3  2  0  0  0  0
  4  1  1  0  0  0  0
  6  7  1  0  0  0  0
  6  5  2  0  0  0  0
  7  8  1  0  0  0  0
  8  9  2  0  0  0  0
  9 13  1  0  0  0  0
 10 15  1  0  0  0  0
 10  9  1  0  0  0  0
 11 10  2  0  0  0  0
 12 11  1  0  0  0  0
 12  7  2  0  0  0  0
 13 14  1  0  0  0  0
 16 15  1  0  0  0  0
 17 12  1  0  0  0  0
 18 17  1  0  0  0  0
 19  1  1  0  0  0  0
 20 21  1  0  0  0  0
 21 22  2  0  0  0  0
 22 19  1  0  0  0  0
 23 22  1  0  0  0  0
 24 23  2  0  0  0  0
 25 20  2  0  0  0  0
 25 24  1  0  0  0  0
 26 27  1  0  0  0  0
 27 20  1  0  0  0  0
 28 25  1  0  0  0  0
 29 28  1  0  0  0  0
M  END
>  <MODEL>
1

>  <REMARK>
 VINA RESULT:    -7.507      0.000      0.000
 INTER + INTRA:         -12.062
 INTER:                 -11.213
 INTRA:                  -0.850
 UNBOUND:                -0.825
  Name = CHEMBL4437828
  13 active torsions:
  status: ('A' for Active; 'I' for Inactive)
    1  A    between atoms: C_1  and  O_2
    2  A    between atoms: O_2  and  C_3
    3  A    between atoms: C_5  and  C_6
    4  A    between atoms: C_6  and  N_7
    5  A    between atoms: C_8  and  C_10
    6  A    between atoms: C_11  and  C_12
    7  A    between atoms: C_14  and  O_15
    8  A    between atoms: O_15  and  C_16
    9  A    between atoms: C_17  and  O_18
   10  A    between atoms: O_18  and  C_19
   11  A    between atoms: C_21  and  O_22
   12  A    between atoms: O_22  and  C_23
   13  A    between atoms: C_26  and  O_27
                            x       y       z     vdW  Elec       q    Type
                         _______ _______ _______ _____ _____    ______ ____

>  <TORSDO>
F 9

>  <SCORE>
-7.507

>  <RMSD_LB>
0.000

>  <RMSD_UB>
0.000

$$$$
CHEMBL4437828
 OpenBabel10172500293D

 29 30  0  0  0  0  0  0  0  0999 V2000
  133.7030  134.5680  152.6340 N   0  0  0  0  0  0  0  0  0  0  0  0
  134.2270  134.0710  153.8000 C   0  0  0  0  0  0  0  0  0  0  0  0
  134.2130  132.8890  154.1140 O   0  0  0  0  0  0  0  0  0  0  0  0
  133.7510  135.5360  152.4590 H   0  0  0  0  0  0  0  0  0  0  0  0
  134.8270  135.1210  154.6670 C   0  0  0  0  0  3  0  0  0  0  0  0
  135.2320  134.7920  155.9050 C   0  0  0  0  0  3  0  0  0  0  0  0
  135.9080  135.7370  156.8010 C   0  0  0  0  0  0  0  0  0  0  0  0
  136.7260  136.6950  156.1620 C   0  0  0  0  0  3  0  0  0  0  0  0
  137.4150  137.6890  156.8750 C   0  0  0  0  0  0  0  0  0  0  0  0
  137.2840  137.7260  158.2700 C   0  0  0  0  0  0  0  0  0  0  0  0
  136.4660  136.7760  158.9030 C   0  0  0  0  0  3  0  0  0  0  0  0
  135.7810  135.7780  158.1930 C   0  0  0  0  0  0  0  0  0  0  0  0
  138.2030  138.6320  156.2720 O   0  0  0  0  0  0  0  0  0  0  0  0
  138.4400  138.5390  154.8750 C   0  0  0  0  0  1  0  0  0  0  0  0
  137.8560  138.5980  159.1600 O   0  0  0  0  0  0  0  0  0  0  0  0
  138.0780  138.1750  160.4990 C   0  0  0  0  0  1  0  0  0  0  0  0
  134.9870  135.0010  158.9940 O   0  0  0  0  0  0  0  0  0  0  0  0
  134.0320  135.6500  159.8220 C   0  0  0  0  0  1  0  0  0  0  0  0
  133.0780  133.7050  151.6530 C   0  0  0  0  0  2  0  0  0  0  0  0
  133.2660  134.0100  147.8480 C   0  0  0  0  0  0  0  0  0  0  0  0
  133.2900  133.4820  149.1440 C   0  0  0  0  0  3  0  0  0  0  0  0
  133.0820  134.3020  150.2690 C   0  0  0  0  0  0  0  0  0  0  0  0
  132.8760  135.6760  150.0760 C   0  0  0  0  0  3  0  0  0  0  0  0
  132.8530  136.2160  148.7900 C   0  0  0  0  0  3  0  0  0  0  0  0
  133.0460  135.3870  147.6880 C   0  0  0  0  0  0  0  0  0  0  0  0
  134.7620  133.1650  146.1960 C   0  0  0  0  0  1  0  0  0  0  0  0
  133.4380  133.2870  146.6980 O   0  0  0  0  0  0  0  0  0  0  0  0
  133.0230  135.9190  146.4240 O   0  0  0  0  0  0  0  0  0  0  0  0
  132.6930  135.4130  145.7080 H   0  0  0  0  0  0  0  0  0  0  0  0
  1  2  1  0  0  0  0
  2  3  2  0  0  0  0
  2  5  1  0  0  0  0
  4  1  1  0  0  0  0
  5  6  2  0  0  0  0
  6  7  1  0  0  0  0
  7 12  1  0  0  0  0
  8  7  2  0  0  0  0
  8  9  1  0  0  0  0
  9 10  2  0  0  0  0
 10 11  1  0  0  0  0
 10 15  1  0  0  0  0
 12 11  2  0  0  0  0
 12 17  1  0  0  0  0
 13  9  1  0  0  0  0
 14 13  1  0  0  0  0
 15 16  1  0  0  0  0
 17 18  1  0  0  0  0
 19  1  1  0  0  0  0
 20 21  1  0  0  0  0
 21 22  2  0  0  0  0
 22 19  1  0  0  0  0
 23 22  1  0  0  0  0
 24 23  2  0  0  0  0
 25 20  2  0  0  0  0
 25 24  1  0  0  0  0
 26 27  1  0  0  0  0
 27 20  1  0  0  0  0
 28 25  1  0  0  0  0
 29 28  1  0  0  0  0
M  END
>  <MODEL>
2

>  <REMARK>
 VINA RESULT:    -7.402      1.956      4.178
 INTER + INTRA:         -11.906
 INTER:                 -11.369
 INTRA:                  -0.537
 UNBOUND:                -0.825
  Name = CHEMBL4437828
  13 active torsions:
  status: ('A' for Active; 'I' for Inactive)
    1  A    between atoms: C_1  and  O_2
    2  A    between atoms: O_2  and  C_3
    3  A    between atoms: C_5  and  C_6
    4  A    between atoms: C_6  and  N_7
    5  A    between atoms: C_8  and  C_10
    6  A    between atoms: C_11  and  C_12
    7  A    between atoms: C_14  and  O_15
    8  A    between atoms: O_15  and  C_16
    9  A    between atoms: C_17  and  O_18
   10  A    between atoms: O_18  and  C_19
   11  A    between atoms: C_21  and  O_22
   12  A    between atoms: O_22  and  C_23
   13  A    between atoms: C_26  and  O_27
                            x       y       z     vdW  Elec       q    Type
                         _______ _______ _______ _____ _____    ______ ____

>  <TORSDO>
F 9

>  <SCORE>
-7.402

>  <RMSD_LB>
1.956

>  <RMSD_UB>
4.178

$$$$
CHEMBL4437828
 OpenBabel10172500293D

 29 30  0  0  0  0  0  0  0  0999 V2000
  138.7430  137.5350  155.2980 N   0  0  0  0  0  0  0  0  0  0  0  0
  139.4420  138.5280  154.6590 C   0  0  0  0  0  0  0  0  0  0  0  0
  138.9730  139.6180  154.3590 O   0  0  0  0  0  0  0  0  0  0  0  0
  139.1950  136.6830  155.5000 H   0  0  0  0  0  0  0  0  0  0  0  0
  140.8490  138.1540  154.3580 C   0  0  0  0  0  3  0  0  0  0  0  0
  141.1880  137.8500  153.0940 C   0  0  0  0  0  3  0  0  0  0  0  0
  142.5640  137.5480  152.6860 C   0  0  0  0  0  0  0  0  0  0  0  0
  143.5290  137.6250  153.7160 C   0  0  0  0  0  3  0  0  0  0  0  0
  144.8860  137.3350  153.4970 C   0  0  0  0  0  0  0  0  0  0  0  0
  145.2900  136.9570  152.2100 C   0  0  0  0  0  0  0  0  0  0  0  0
  144.3290  136.8750  151.1890 C   0  0  0  0  0  3  0  0  0  0  0  0
  142.9750  137.1710  151.4030 C   0  0  0  0  0  0  0  0  0  0  0  0
  145.8310  137.3940  154.4840 O   0  0  0  0  0  0  0  0  0  0  0  0
  146.2230  138.6630  154.9880 C   0  0  0  0  0  1  0  0  0  0  0  0
  146.5470  136.6290  151.7700 O   0  0  0  0  0  0  0  0  0  0  0  0
  146.9330  136.9820  150.4490 C   0  0  0  0  0  1  0  0  0  0  0  0
  142.1990  136.9610  150.2950 O   0  0  0  0  0  0  0  0  0  0  0  0
  142.0010  138.0470  149.4000 C   0  0  0  0  0  1  0  0  0  0  0  0
  137.3570  137.7070  155.6820 C   0  0  0  0  0  2  0  0  0  0  0  0
  134.8760  134.8000  155.6470 C   0  0  0  0  0  0  0  0  0  0  0  0
  135.7260  135.8190  156.0920 C   0  0  0  0  0  3  0  0  0  0  0  0
  136.4750  136.5910  155.1820 C   0  0  0  0  0  0  0  0  0  0  0  0
  136.3800  136.3050  153.8130 C   0  0  0  0  0  3  0  0  0  0  0  0
  135.5390  135.2890  153.3570 C   0  0  0  0  0  3  0  0  0  0  0  0
  134.7950  134.5460  154.2700 C   0  0  0  0  0  0  0  0  0  0  0  0
  133.7450  134.5350  157.7280 C   0  0  0  0  0  1  0  0  0  0  0  0
  134.0980  134.0130  156.4550 O   0  0  0  0  0  0  0  0  0  0  0  0
  133.9690  133.5480  153.8190 O   0  0  0  0  0  0  0  0  0  0  0  0
  134.1480  132.6550  154.0410 H   0  0  0  0  0  0  0  0  0  0  0  0
  1  4  1  0  0  0  0
  1 19  1  0  0  0  0
  2  1  1  0  0  0  0
  3  2  2  0  0  0  0
  5  2  1  0  0  0  0
  6  5  2  0  0  0  0
  7  6  1  0  0  0  0
  7  8  1  0  0  0  0
  9  8  2  0  0  0  0
  9 13  1  0  0  0  0
 10  9  1  0  0  0  0
 11 12  1  0  0  0  0
 11 10  2  0  0  0  0
 12  7  2  0  0  0  0
 13 14  1  0  0  0  0
 15 10  1  0  0  0  0
 16 15  1  0  0  0  0
 17 12  1  0  0  0  0
 18 17  1  0  0  0  0
 20 21  1  0  0  0  0
 20 27  1  0  0  0  0
 22 19  1  0  0  0  0
 22 21  2  0  0  0  0
 23 22  1  0  0  0  0
 24 23  2  0  0  0  0
 24 25  1  0  0  0  0
 25 20  2  0  0  0  0
 27 26  1  0  0  0  0
 28 29  1  0  0  0  0
 28 25  1  0  0  0  0
M  END
>  <MODEL>
3

>  <REMARK>
 VINA RESULT:    -7.304      4.062      6.900
 INTER + INTRA:         -11.759
 INTER:                 -11.023
 INTRA:                  -0.736
 UNBOUND:                -0.825
  Name = CHEMBL4437828
  13 active torsions:
  status: ('A' for Active; 'I' for Inactive)
    1  A    between atoms: C_1  and  O_2
    2  A    between atoms: O_2  and  C_3
    3  A    between atoms: C_5  and  C_6
    4  A    between atoms: C_6  and  N_7
    5  A    between atoms: C_8  and  C_10
    6  A    between atoms: C_11  and  C_12
    7  A    between atoms: C_14  and  O_15
    8  A    between atoms: O_15  and  C_16
    9  A    between atoms: C_17  and  O_18
   10  A    between atoms: O_18  and  C_19
   11  A    between atoms: C_21  and  O_22
   12  A    between atoms: O_22  and  C_23
   13  A    between atoms: C_26  and  O_27
                            x       y       z     vdW  Elec       q    Type
                         _______ _______ _______ _____ _____    ______ ____

>  <TORSDO>
F 9

>  <SCORE>
-7.304

>  <RMSD_LB>
4.062

>  <RMSD_UB>
6.900

$$$$
CHEMBL4437828
 OpenBabel10172500293D

 29 30  0  0  0  0  0  0  0  0999 V2000
  143.3450  139.1880  151.9940 N   0  0  0  0  0  0  0  0  0  0  0  0
  142.0500  139.3030  151.5560 C   0  0  0  0  0  0  0  0  0  0  0  0
  141.7040  139.9730  150.5920 O   0  0  0  0  0  0  0  0  0  0  0  0
  143.5390  138.6310  152.7820 H   0  0  0  0  0  0  0  0  0  0  0  0
  141.0840  138.5230  152.3750 C   0  0  0  0  0  3  0  0  0  0  0  0
  139.7810  138.8450  152.3300 C   0  0  0  0  0  3  0  0  0  0  0  0
  138.7450  138.0850  153.0380 C   0  0  0  0  0  0  0  0  0  0  0  0
  137.8680  137.3460  152.2120 C   0  0  0  0  0  3  0  0  0  0  0  0
  136.8430  136.5410  152.7360 C   0  0  0  0  0  0  0  0  0  0  0  0
  136.6890  136.4740  154.1260 C   0  0  0  0  0  0  0  0  0  0  0  0
  137.5650  137.2040  154.9460 C   0  0  0  0  0  3  0  0  0  0  0  0
  138.5850  138.0140  154.4260 C   0  0  0  0  0  0  0  0  0  0  0  0
  135.9920  135.8110  151.9520 O   0  0  0  0  0  0  0  0  0  0  0  0
  136.5190  135.0940  150.8450 C   0  0  0  0  0  1  0  0  0  0  0  0
  135.7700  135.7600  154.8520 O   0  0  0  0  0  0  0  0  0  0  0  0
  135.8630  135.7490  156.2700 C   0  0  0  0  0  1  0  0  0  0  0  0
  139.3660  138.5820  155.3970 O   0  0  0  0  0  0  0  0  0  0  0  0
  140.3400  137.7670  156.0350 C   0  0  0  0  0  1  0  0  0  0  0  0
  144.4360  139.8680  151.3260 C   0  0  0  0  0  2  0  0  0  0  0  0
  147.1060  140.0520  154.0540 C   0  0  0  0  0  0  0  0  0  0  0  0
  146.1360  139.5620  153.1720 C   0  0  0  0  0  3  0  0  0  0  0  0
  145.4520  140.4230  152.2920 C   0  0  0  0  0  0  0  0  0  0  0  0
  145.7350  141.7950  152.3300 C   0  0  0  0  0  3  0  0  0  0  0  0
  146.6970  142.2970  153.2080 C   0  0  0  0  0  3  0  0  0  0  0  0
  147.3750  141.4290  154.0600 C   0  0  0  0  0  0  0  0  0  0  0  0
  147.1120  138.5420  155.8990 C   0  0  0  0  0  1  0  0  0  0  0  0
  147.8340  139.2890  154.9290 O   0  0  0  0  0  0  0  0  0  0  0  0
  148.3200  141.9230  154.9220 O   0  0  0  0  0  0  0  0  0  0  0  0
  149.0700  142.3760  154.5870 H   0  0  0  0  0  0  0  0  0  0  0  0
  1  4  1  0  0  0  0
  2  1  1  0  0  0  0
  2  5  1  0  0  0  0
  3  2  2  0  0  0  0
  6  5  2  0  0  0  0
  6  7  1  0  0  0  0
  7 12  1  0  0  0  0
  8  9  1  0  0  0  0
  8  7  2  0  0  0  0
  9 10  2  0  0  0  0
 10 15  1  0  0  0  0
 10 11  1  0  0  0  0
 12 11  2  0  0  0  0
 12 17  1  0  0  0  0
 13  9  1  0  0  0  0
 14 13  1  0  0  0  0
 15 16  1  0  0  0  0
 17 18  1  0  0  0  0
 19  1  1  0  0  0  0
 19 22  1  0  0  0  0
 20 25  1  0  0  0  0
 20 27  1  0  0  0  0
 21 20  2  0  0  0  0
 22 23  2  0  0  0  0
 22 21  1  0  0  0  0
 23 24  1  0  0  0  0
 24 25  2  0  0  0  0
 25 28  1  0  0  0  0
 27 26  1  0  0  0  0
 29 28  1  0  0  0  0
M  END
>  <MODEL>
4

>  <REMARK>
 VINA RESULT:    -7.115      4.343     10.845
 INTER + INTRA:         -11.476
 INTER:                 -10.748
 INTRA:                  -0.729
 UNBOUND:                -0.825
  Name = CHEMBL4437828
  13 active torsions:
  status: ('A' for Active; 'I' for Inactive)
    1  A    between atoms: C_1  and  O_2
    2  A    between atoms: O_2  and  C_3
    3  A    between atoms: C_5  and  C_6
    4  A    between atoms: C_6  and  N_7
    5  A    between atoms: C_8  and  C_10
    6  A    between atoms: C_11  and  C_12
    7  A    between atoms: C_14  and  O_15
    8  A    between atoms: O_15  and  C_16
    9  A    between atoms: C_17  and  O_18
   10  A    between atoms: O_18  and  C_19
   11  A    between atoms: C_21  and  O_22
   12  A    between atoms: O_22  and  C_23
   13  A    between atoms: C_26  and  O_27
                            x       y       z     vdW  Elec       q    Type
                         _______ _______ _______ _____ _____    ______ ____

>  <TORSDO>
F 9

>  <SCORE>
-7.115

>  <RMSD_LB>
4.343

>  <RMSD_UB>
10.845

$$$$
CHEMBL4437828
 OpenBabel10172500293D

 29 30  0  0  0  0  0  0  0  0999 V2000
  137.7550  137.0200  155.1150 N   0  0  0  0  0  0  0  0  0  0  0  0
  137.8320  138.3900  155.1100 C   0  0  0  0  0  0  0  0  0  0  0  0
  136.9710  139.1310  155.5620 O   0  0  0  0  0  0  0  0  0  0  0  0
  138.4920  136.4960  154.7260 H   0  0  0  0  0  0  0  0  0  0  0  0
  139.0850  138.9040  154.4930 C   0  0  0  0  0  3  0  0  0  0  0  0
  139.8850  138.0490  153.8340 C   0  0  0  0  0  3  0  0  0  0  0  0
  141.0970  138.4760  153.1250 C   0  0  0  0  0  0  0  0  0  0  0  0
  142.3120  138.2170  153.7980 C   0  0  0  0  0  3  0  0  0  0  0  0
  143.5620  138.5350  153.2420 C   0  0  0  0  0  0  0  0  0  0  0  0
  143.5980  139.1300  151.9740 C   0  0  0  0  0  0  0  0  0  0  0  0
  142.3900  139.3810  151.3030 C   0  0  0  0  0  3  0  0  0  0  0  0
  141.1400  139.0710  151.8600 C   0  0  0  0  0  0  0  0  0  0  0  0
  144.7480  138.2830  153.8750 O   0  0  0  0  0  0  0  0  0  0  0  0
  145.2910  139.2700  154.7390 C   0  0  0  0  0  1  0  0  0  0  0  0
  144.6910  139.5200  151.2430 O   0  0  0  0  0  0  0  0  0  0  0  0
  144.5220  140.4660  150.1960 C   0  0  0  0  0  1  0  0  0  0  0  0
  140.0960  139.3330  151.0130 O   0  0  0  0  0  0  0  0  0  0  0  0
  140.3590  140.0900  149.8400 C   0  0  0  0  0  1  0  0  0  0  0  0
  136.6150  136.3260  155.6760 C   0  0  0  0  0  2  0  0  0  0  0  0
  135.2870  135.1670  152.2850 C   0  0  0  0  0  0  0  0  0  0  0  0
  135.9890  135.8720  153.2690 C   0  0  0  0  0  3  0  0  0  0  0  0
  135.8220  135.5760  154.6350 C   0  0  0  0  0  0  0  0  0  0  0  0
  134.9120  134.5760  155.0050 C   0  0  0  0  0  3  0  0  0  0  0  0
  134.2030  133.8680  154.0340 C   0  0  0  0  0  3  0  0  0  0  0  0
  134.3920  134.1630  152.6870 C   0  0  0  0  0  0  0  0  0  0  0  0
  136.5860  134.9100  150.3030 C   0  0  0  0  0  1  0  0  0  0  0  0
  135.4000  135.3720  150.9350 O   0  0  0  0  0  0  0  0  0  0  0  0
  133.6950  133.4660  151.7340 O   0  0  0  0  0  0  0  0  0  0  0  0
  133.8430  133.6380  150.8250 H   0  0  0  0  0  0  0  0  0  0  0  0
  1 19  1  0  0  0  0
  2  1  1  0  0  0  0
  2  3  2  0  0  0  0
  4  1  1  0  0  0  0
  5  2  1  0  0  0  0
  6  5  2  0  0  0  0
  7  8  1  0  0  0  0
  7  6  1  0  0  0  0
  9  8  2  0  0  0  0
  9 13  1  0  0  0  0
 10  9  1  0  0  0  0
 11 12  1  0  0  0  0
 11 10  2  0  0  0  0
 12  7  2  0  0  0  0
 13 14  1  0  0  0  0
 15 10  1  0  0  0  0
 16 15  1  0  0  0  0
 17 12  1  0  0  0  0
 18 17  1  0  0  0  0
 20 25  2  0  0  0  0
 20 21  1  0  0  0  0
 21 22  2  0  0  0  0
 22 23  1  0  0  0  0
 22 19  1  0  0  0  0
 24 23  2  0  0  0  0
 25 24  1  0  0  0  0
 26 27  1  0  0  0  0
 27 20  1  0  0  0  0
 28 25  1  0  0  0  0
 29 28  1  0  0  0  0
M  END
>  <MODEL>
5

>  <REMARK>
 VINA RESULT:    -7.099      3.048      5.209
 INTER + INTRA:         -11.451
 INTER:                 -10.498
 INTRA:                  -0.954
 UNBOUND:                -0.825
  Name = CHEMBL4437828
  13 active torsions:
  status: ('A' for Active; 'I' for Inactive)
    1  A    between atoms: C_1  and  O_2
    2  A    between atoms: O_2  and  C_3
    3  A    between atoms: C_5  and  C_6
    4  A    between atoms: C_6  and  N_7
    5  A    between atoms: C_8  and  C_10
    6  A    between atoms: C_11  and  C_12
    7  A    between atoms: C_14  and  O_15
    8  A    between atoms: O_15  and  C_16
    9  A    between atoms: C_17  and  O_18
   10  A    between atoms: O_18  and  C_19
   11  A    between atoms: C_21  and  O_22
   12  A    between atoms: O_22  and  C_23
   13  A    between atoms: C_26  and  O_27
                            x       y       z     vdW  Elec       q    Type
                         _______ _______ _______ _____ _____    ______ ____

>  <TORSDO>
F 9

>  <SCORE>
-7.099

>  <RMSD_LB>
3.048

>  <RMSD_UB>
5.209

$$$$
CHEMBL4437828
 OpenBabel10172500293D

 29 30  0  0  0  0  0  0  0  0999 V2000
  138.8250  137.5150  155.0360 N   0  0  0  0  0  0  0  0  0  0  0  0
  139.3800  138.5470  154.3220 C   0  0  0  0  0  0  0  0  0  0  0  0
  138.8530  139.6400  154.1670 O   0  0  0  0  0  0  0  0  0  0  0  0
  139.3150  136.6630  155.1100 H   0  0  0  0  0  0  0  0  0  0  0  0
  140.7080  138.2100  153.7420 C   0  0  0  0  0  3  0  0  0  0  0  0
  140.7680  137.7030  152.5000 C   0  0  0  0  0  3  0  0  0  0  0  0
  142.0340  137.4170  151.8140 C   0  0  0  0  0  0  0  0  0  0  0  0
  143.1970  137.5890  152.5980 C   0  0  0  0  0  3  0  0  0  0  0  0
  144.4830  137.3260  152.1010 C   0  0  0  0  0  0  0  0  0  0  0  0
  144.6110  136.8770  150.7790 C   0  0  0  0  0  0  0  0  0  0  0  0
  143.4540  136.7010  150.0040 C   0  0  0  0  0  3  0  0  0  0  0  0
  142.1680  136.9700  150.4960 C   0  0  0  0  0  0  0  0  0  0  0  0
  145.6190  137.4770  152.8480 O   0  0  0  0  0  0  0  0  0  0  0  0
  145.8890  136.5460  153.8860 C   0  0  0  0  0  1  0  0  0  0  0  0
  145.7540  136.5590  150.0910 O   0  0  0  0  0  0  0  0  0  0  0  0
  146.4120  137.5680  149.3360 C   0  0  0  0  0  1  0  0  0  0  0  0
  141.1770  136.6650  149.6010 O   0  0  0  0  0  0  0  0  0  0  0  0
  141.4060  135.6060  148.6820 C   0  0  0  0  0  1  0  0  0  0  0  0
  137.5370  137.6450  155.6830 C   0  0  0  0  0  2  0  0  0  0  0  0
  135.5300  135.2290  153.5050 C   0  0  0  0  0  0  0  0  0  0  0  0
  136.4010  136.2490  153.9080 C   0  0  0  0  0  3  0  0  0  0  0  0
  136.5680  136.5670  155.2700 C   0  0  0  0  0  0  0  0  0  0  0  0
  135.8230  135.8620  156.2260 C   0  0  0  0  0  3  0  0  0  0  0  0
  134.9490  134.8460  155.8370 C   0  0  0  0  0  3  0  0  0  0  0  0
  134.8080  134.5350  154.4870 C   0  0  0  0  0  0  0  0  0  0  0  0
  134.6290  135.7450  151.3590 C   0  0  0  0  0  1  0  0  0  0  0  0
  135.3200  134.8390  152.2090 O   0  0  0  0  0  0  0  0  0  0  0  0
  133.9490  133.5360  154.1060 O   0  0  0  0  0  0  0  0  0  0  0  0
  133.4030  133.6490  153.3530 H   0  0  0  0  0  0  0  0  0  0  0  0
  1  4  1  0  0  0  0
  1 19  1  0  0  0  0
  2  1  1  0  0  0  0
  3  2  2  0  0  0  0
  5  2  1  0  0  0  0
  6  5  2  0  0  0  0
  7  6  1  0  0  0  0
  7  8  1  0  0  0  0
  9  8  2  0  0  0  0
  9 13  1  0  0  0  0
 10  9  1  0  0  0  0
 11 12  1  0  0  0  0
 11 10  2  0  0  0  0
 12  7  2  0  0  0  0
 13 14  1  0  0  0  0
 15 10  1  0  0  0  0
 16 15  1  0  0  0  0
 17 12  1  0  0  0  0
 18 17  1  0  0  0  0
 20 21  2  0  0  0  0
 20 25  1  0  0  0  0
 21 22  1  0  0  0  0
 22 19  1  0  0  0  0
 22 23  2  0  0  0  0
 24 23  1  0  0  0  0
 25 24  2  0  0  0  0
 26 27  1  0  0  0  0
 27 20  1  0  0  0  0
 28 25  1  0  0  0  0
 29 28  1  0  0  0  0
M  END
>  <MODEL>
6

>  <REMARK>
 VINA RESULT:    -7.007      3.684      6.518
 INTER + INTRA:         -11.314
 INTER:                 -10.463
 INTRA:                  -0.851
 UNBOUND:                -0.825
  Name = CHEMBL4437828
  13 active torsions:
  status: ('A' for Active; 'I' for Inactive)
    1  A    between atoms: C_1  and  O_2
    2  A    between atoms: O_2  and  C_3
    3  A    between atoms: C_5  and  C_6
    4  A    between atoms: C_6  and  N_7
    5  A    between atoms: C_8  and  C_10
    6  A    between atoms: C_11  and  C_12
    7  A    between atoms: C_14  and  O_15
    8  A    between atoms: O_15  and  C_16
    9  A    between atoms: C_17  and  O_18
   10  A    between atoms: O_18  and  C_19
   11  A    between atoms: C_21  and  O_22
   12  A    between atoms: O_22  and  C_23
   13  A    between atoms: C_26  and  O_27
                            x       y       z     vdW  Elec       q    Type
                         _______ _______ _______ _____ _____    ______ ____

>  <TORSDO>
F 9

>  <SCORE>
-7.007

>  <RMSD_LB>
3.684

>  <RMSD_UB>
6.518

$$$$
CHEMBL4437828
 OpenBabel10172500293D

 29 30  0  0  0  0  0  0  0  0999 V2000
  138.4540  137.2900  155.9440 N   0  0  0  0  0  0  0  0  0  0  0  0
  137.7820  138.0830  155.0480 C   0  0  0  0  0  0  0  0  0  0  0  0
  137.2550  139.1500  155.3310 O   0  0  0  0  0  0  0  0  0  0  0  0
  138.8470  136.4410  155.6340 H   0  0  0  0  0  0  0  0  0  0  0  0
  137.7520  137.5170  153.6720 C   0  0  0  0  0  3  0  0  0  0  0  0
  136.8220  136.5970  153.3660 C   0  0  0  0  0  3  0  0  0  0  0  0
  136.6620  136.0420  152.0170 C   0  0  0  0  0  0  0  0  0  0  0  0
  137.4760  136.6280  151.0230 C   0  0  0  0  0  3  0  0  0  0  0  0
  137.4660  136.1900  149.6890 C   0  0  0  0  0  0  0  0  0  0  0  0
  136.6150  135.1340  149.3380 C   0  0  0  0  0  0  0  0  0  0  0  0
  135.8110  134.5470  150.3290 C   0  0  0  0  0  3  0  0  0  0  0  0
  135.8140  134.9880  151.6600 C   0  0  0  0  0  0  0  0  0  0  0  0
  138.2550  136.7390  148.7150 O   0  0  0  0  0  0  0  0  0  0  0  0
  137.8220  137.9260  148.0660 C   0  0  0  0  0  1  0  0  0  0  0  0
  136.4420  134.5460  148.1110 O   0  0  0  0  0  0  0  0  0  0  0  0
  135.4710  135.0760  147.2190 C   0  0  0  0  0  1  0  0  0  0  0  0
  135.0100  134.2370  152.4750 O   0  0  0  0  0  0  0  0  0  0  0  0
  133.6020  134.3780  152.3420 C   0  0  0  0  0  1  0  0  0  0  0  0
  138.5990  137.6690  157.3340 C   0  0  0  0  0  2  0  0  0  0  0  0
  135.5020  135.8030  158.5720 C   0  0  0  0  0  0  0  0  0  0  0  0
  136.5990  136.1920  157.7950 C   0  0  0  0  0  3  0  0  0  0  0  0
  137.4010  137.2890  158.1670 C   0  0  0  0  0  0  0  0  0  0  0  0
  137.0670  138.0120  159.3200 C   0  0  0  0  0  3  0  0  0  0  0  0
  135.9730  137.6370  160.1010 C   0  0  0  0  0  3  0  0  0  0  0  0
  135.2010  136.5400  159.7270 C   0  0  0  0  0  0  0  0  0  0  0  0
  134.2940  134.5460  156.9460 C   0  0  0  0  0  1  0  0  0  0  0  0
  134.6800  134.7410  158.2990 O   0  0  0  0  0  0  0  0  0  0  0  0
  134.1260  136.1730  160.4960 O   0  0  0  0  0  0  0  0  0  0  0  0
  134.1790  135.4150  161.0440 H   0  0  0  0  0  0  0  0  0  0  0  0
  1 19  1  0  0  0  0
  2  3  2  0  0  0  0
  2  1  1  0  0  0  0
  4  1  1  0  0  0  0
  5  2  1  0  0  0  0
  6  5  2  0  0  0  0
  7  6  1  0  0  0  0
  8  7  2  0  0  0  0
  9  8  1  0  0  0  0
 10  9  2  0  0  0  0
 10 11  1  0  0  0  0
 11 12  2  0  0  0  0
 12  7  1  0  0  0  0
 12 17  1  0  0  0  0
 13  9  1  0  0  0  0
 14 13  1  0  0  0  0
 15 10  1  0  0  0  0
 16 15  1  0  0  0  0
 18 17  1  0  0  0  0
 19 22  1  0  0  0  0
 20 25  1  0  0  0  0
 21 22  1  0  0  0  0
 21 20  2  0  0  0  0
 22 23  2  0  0  0  0
 23 24  1  0  0  0  0
 25 24  2  0  0  0  0
 25 28  1  0  0  0  0
 26 27  1  0  0  0  0
 27 20  1  0  0  0  0
 28 29  1  0  0  0  0
M  END
>  <MODEL>
7

>  <REMARK>
 VINA RESULT:    -6.980      2.939      8.645
 INTER + INTRA:         -11.274
 INTER:                 -10.363
 INTRA:                  -0.910
 UNBOUND:                -0.825
  Name = CHEMBL4437828
  13 active torsions:
  status: ('A' for Active; 'I' for Inactive)
    1  A    between atoms: C_1  and  O_2
    2  A    between atoms: O_2  and  C_3
    3  A    between atoms: C_5  and  C_6
    4  A    between atoms: C_6  and  N_7
    5  A    between atoms: C_8  and  C_10
    6  A    between atoms: C_11  and  C_12
    7  A    between atoms: C_14  and  O_15
    8  A    between atoms: O_15  and  C_16
    9  A    between atoms: C_17  and  O_18
   10  A    between atoms: O_18  and  C_19
   11  A    between atoms: C_21  and  O_22
   12  A    between atoms: O_22  and  C_23
   13  A    between atoms: C_26  and  O_27
                            x       y       z     vdW  Elec       q    Type
                         _______ _______ _______ _____ _____    ______ ____

>  <TORSDO>
F 9

>  <SCORE>
-6.980

>  <RMSD_LB>
2.939

>  <RMSD_UB>
8.645

$$$$
CHEMBL4437828
 OpenBabel10172500293D

 29 30  0  0  0  0  0  0  0  0999 V2000
  141.9330  138.2580  151.8430 N   0  0  0  0  0  0  0  0  0  0  0  0
  140.6200  138.6190  152.0200 C   0  0  0  0  0  0  0  0  0  0  0  0
  140.0270  139.4280  151.3200 O   0  0  0  0  0  0  0  0  0  0  0  0
  142.3370  137.6010  152.4540 H   0  0  0  0  0  0  0  0  0  0  0  0
  139.9710  137.9240  153.1640 C   0  0  0  0  0  3  0  0  0  0  0  0
  138.6600  138.1130  153.3830 C   0  0  0  0  0  3  0  0  0  0  0  0
  137.9160  137.4090  154.4340 C   0  0  0  0  0  0  0  0  0  0  0  0
  136.8620  136.5850  153.9780 C   0  0  0  0  0  3  0  0  0  0  0  0
  136.0750  135.8200  154.8540 C   0  0  0  0  0  0  0  0  0  0  0  0
  136.3490  135.8810  156.2270 C   0  0  0  0  0  0  0  0  0  0  0  0
  137.4000  136.6960  156.6770 C   0  0  0  0  0  3  0  0  0  0  0  0
  138.1830  137.4660  155.8050 C   0  0  0  0  0  0  0  0  0  0  0  0
  135.0580  135.0080  154.4300 O   0  0  0  0  0  0  0  0  0  0  0  0
  134.0190  135.5640  153.6360 C   0  0  0  0  0  1  0  0  0  0  0  0
  135.7190  135.2270  157.2550 O   0  0  0  0  0  0  0  0  0  0  0  0
  136.2680  135.3010  158.5630 C   0  0  0  0  0  1  0  0  0  0  0  0
  139.1960  138.1330  156.4420 O   0  0  0  0  0  0  0  0  0  0  0  0
  140.3760  137.4090  156.7640 C   0  0  0  0  0  1  0  0  0  0  0  0
  142.7380  138.8210  150.7790 C   0  0  0  0  0  2  0  0  0  0  0  0
  145.2860  140.5110  153.0710 C   0  0  0  0  0  0  0  0  0  0  0  0
  144.2950  139.6470  152.5910 C   0  0  0  0  0  3  0  0  0  0  0  0
  143.7800  139.7840  151.2880 C   0  0  0  0  0  0  0  0  0  0  0  0
  144.2550  140.8260  150.4780 C   0  0  0  0  0  3  0  0  0  0  0  0
  145.2390  141.6960  150.9460 C   0  0  0  0  0  3  0  0  0  0  0  0
  145.7490  141.5360  152.2320 C   0  0  0  0  0  0  0  0  0  0  0  0
  146.6060  139.2720  154.6230 C   0  0  0  0  0  1  0  0  0  0  0  0
  145.8580  140.4410  154.3140 O   0  0  0  0  0  0  0  0  0  0  0  0
  146.7170  142.3920  152.6910 O   0  0  0  0  0  0  0  0  0  0  0  0
  147.4470  142.6100  152.1460 H   0  0  0  0  0  0  0  0  0  0  0  0
  1  2  1  0  0  0  0
  1  4  1  0  0  0  0
  2  5  1  0  0  0  0
  3  2  2  0  0  0  0
  5  6  2  0  0  0  0
  6  7  1  0  0  0  0
  7 12  1  0  0  0  0
  8  7  2  0  0  0  0
  8  9  1  0  0  0  0
  9 10  2  0  0  0  0
 10 11  1  0  0  0  0
 10 15  1  0  0  0  0
 12 17  1  0  0  0  0
 12 11  2  0  0  0  0
 13  9  1  0  0  0  0
 14 13  1  0  0  0  0
 15 16  1  0  0  0  0
 17 18  1  0  0  0  0
 19 22  1  0  0  0  0
 19  1  1  0  0  0  0
 20 27  1  0  0  0  0
 21 20  1  0  0  0  0
 22 21  2  0  0  0  0
 23 24  2  0  0  0  0
 23 22  1  0  0  0  0
 24 25  1  0  0  0  0
 25 28  1  0  0  0  0
 25 20  2  0  0  0  0
 27 26  1  0  0  0  0
 29 28  1  0  0  0  0
M  END
>  <MODEL>
8

>  <REMARK>
 VINA RESULT:    -6.841      4.181      9.701
 INTER + INTRA:         -11.065
 INTER:                 -10.300
 INTRA:                  -0.765
 UNBOUND:                -0.825
  Name = CHEMBL4437828
  13 active torsions:
  status: ('A' for Active; 'I' for Inactive)
    1  A    between atoms: C_1  and  O_2
    2  A    between atoms: O_2  and  C_3
    3  A    between atoms: C_5  and  C_6
    4  A    between atoms: C_6  and  N_7
    5  A    between atoms: C_8  and  C_10
    6  A    between atoms: C_11  and  C_12
    7  A    between atoms: C_14  and  O_15
    8  A    between atoms: O_15  and  C_16
    9  A    between atoms: C_17  and  O_18
   10  A    between atoms: O_18  and  C_19
   11  A    between atoms: C_21  and  O_22
   12  A    between atoms: O_22  and  C_23
   13  A    between atoms: C_26  and  O_27
                            x       y       z     vdW  Elec       q    Type
                         _______ _______ _______ _____ _____    ______ ____

>  <TORSDO>
F 9

>  <SCORE>
-6.841

>  <RMSD_LB>
4.181

>  <RMSD_UB>
9.701

$$$$
CHEMBL4437828
 OpenBabel10172500293D

 29 30  0  0  0  0  0  0  0  0999 V2000
  140.7880  137.9880  151.3080 N   0  0  0  0  0  0  0  0  0  0  0  0
  139.6110  138.6800  151.4440 C   0  0  0  0  0  0  0  0  0  0  0  0
  139.4680  139.8610  151.1600 O   0  0  0  0  0  0  0  0  0  0  0  0
  140.8190  137.0370  151.5640 H   0  0  0  0  0  0  0  0  0  0  0  0
  138.5010  137.8470  151.9810 C   0  0  0  0  0  3  0  0  0  0  0  0
  138.3550  137.7330  153.3110 C   0  0  0  0  0  3  0  0  0  0  0  0
  137.2460  137.0010  153.9330 C   0  0  0  0  0  0  0  0  0  0  0  0
  136.4500  136.2430  153.0460 C   0  0  0  0  0  3  0  0  0  0  0  0
  135.3690  135.4620  153.4860 C   0  0  0  0  0  0  0  0  0  0  0  0
  135.0750  135.4380  154.8560 C   0  0  0  0  0  0  0  0  0  0  0  0
  135.8700  136.1880  155.7380 C   0  0  0  0  0  3  0  0  0  0  0  0
  136.9460  136.9740  155.2990 C   0  0  0  0  0  0  0  0  0  0  0  0
  134.5950  134.7130  152.6420 O   0  0  0  0  0  0  0  0  0  0  0  0
  133.7830  135.3760  151.6830 C   0  0  0  0  0  1  0  0  0  0  0  0
  134.0800  134.7530  155.5050 O   0  0  0  0  0  0  0  0  0  0  0  0
  134.2660  134.3860  156.8650 C   0  0  0  0  0  1  0  0  0  0  0  0
  137.6300  137.5670  156.3270 O   0  0  0  0  0  0  0  0  0  0  0  0
  136.9620  137.7300  157.5700 C   0  0  0  0  0  1  0  0  0  0  0  0
  141.9860  138.6200  150.7960 C   0  0  0  0  0  2  0  0  0  0  0  0
  144.7900  140.3540  152.7290 C   0  0  0  0  0  0  0  0  0  0  0  0
  143.8820  140.0140  151.7200 C   0  0  0  0  0  3  0  0  0  0  0  0
  142.9780  138.9470  151.8830 C   0  0  0  0  0  0  0  0  0  0  0  0
  143.0180  138.2020  153.0700 C   0  0  0  0  0  3  0  0  0  0  0  0
  143.9210  138.5280  154.0830 C   0  0  0  0  0  3  0  0  0  0  0  0
  144.7970  139.5960  153.9100 C   0  0  0  0  0  0  0  0  0  0  0  0
  145.5550  142.3030  151.5900 C   0  0  0  0  0  1  0  0  0  0  0  0
  145.6900  141.3850  152.6660 O   0  0  0  0  0  0  0  0  0  0  0  0
  145.6840  139.9160  154.9070 O   0  0  0  0  0  0  0  0  0  0  0  0
  145.6370  139.4790  155.7340 H   0  0  0  0  0  0  0  0  0  0  0  0
  1  2  1  0  0  0  0
  1  4  1  0  0  0  0
  2  5  1  0  0  0  0
  3  2  2  0  0  0  0
  5  6  2  0  0  0  0
  6  7  1  0  0  0  0
  7 12  1  0  0  0  0
  8  9  1  0  0  0  0
  8  7  2  0  0  0  0
  9 10  2  0  0  0  0
 10 15  1  0  0  0  0
 10 11  1  0  0  0  0
 12 11  2  0  0  0  0
 12 17  1  0  0  0  0
 13  9  1  0  0  0  0
 14 13  1  0  0  0  0
 15 16  1  0  0  0  0
 17 18  1  0  0  0  0
 19  1  1  0  0  0  0
 19 22  1  0  0  0  0
 20 25  1  0  0  0  0
 21 22  1  0  0  0  0
 21 20  2  0  0  0  0
 22 23  2  0  0  0  0
 23 24  1  0  0  0  0
 25 24  2  0  0  0  0
 25 28  1  0  0  0  0
 26 27  1  0  0  0  0
 27 20  1  0  0  0  0
 28 29  1  0  0  0  0
M  END
>  <MODEL>
9

>  <REMARK>
 VINA RESULT:    -6.671      3.235      9.321
 INTER + INTRA:         -10.812
 INTER:                  -9.986
 INTRA:                  -0.825
 UNBOUND:                -0.825
  Name = CHEMBL4437828
  13 active torsions:
  status: ('A' for Active; 'I' for Inactive)
    1  A    between atoms: C_1  and  O_2
    2  A    between atoms: O_2  and  C_3
    3  A    between atoms: C_5  and  C_6
    4  A    between atoms: C_6  and  N_7
    5  A    between atoms: C_8  and  C_10
    6  A    between atoms: C_11  and  C_12
    7  A    between atoms: C_14  and  O_15
    8  A    between atoms: O_15  and  C_16
    9  A    between atoms: C_17  and  O_18
   10  A    between atoms: O_18  and  C_19
   11  A    between atoms: C_21  and  O_22
   12  A    between atoms: O_22  and  C_23
   13  A    between atoms: C_26  and  O_27
                            x       y       z     vdW  Elec       q    Type
                         _______ _______ _______ _____ _____    ______ ____

>  <TORSDO>
F 9

>  <SCORE>
-6.671

>  <RMSD_LB>
3.235

>  <RMSD_UB>
9.321

$$$$
