CHEMBL387842
 OpenBabel10162523343D

 15 15  0  0  0  0  0  0  0  0999 V2000
  133.0000  134.7400  148.3040 C   0  0  0  0  0  0  0  0  0  0  0  0
  133.1850  134.9470  149.6750 C   0  0  0  0  0  3  0  0  0  0  0  0
  133.7440  133.9470  150.4910 C   0  0  0  0  0  0  0  0  0  0  0  0
  134.1360  132.7350  149.9080 C   0  0  0  0  0  3  0  0  0  0  0  0
  133.9620  132.5180  148.5400 C   0  0  0  0  0  3  0  0  0  0  0  0
  133.3940  133.5160  147.7490 C   0  0  0  0  0  0  0  0  0  0  0  0
  132.7730  137.0230  147.6530 C   0  0  0  0  0  1  0  0  0  0  0  0
  132.4610  135.6550  147.4380 O   0  0  0  0  0  0  0  0  0  0  0  0
  133.2200  133.3020  146.4070 O   0  0  0  0  0  0  0  0  0  0  0  0
  133.5680  133.9120  145.7860 H   0  0  0  0  0  0  0  0  0  0  0  0
  133.9630  134.1900  151.9680 C   0  0  0  0  0  2  0  0  0  0  0  0
  133.9700  135.6730  152.3360 C   0  0  0  0  0  2  0  0  0  0  0  0
  134.1400  135.8590  153.8240 C   0  0  0  0  0  0  0  0  0  0  0  0
  134.9340  136.6180  154.3550 O   0  0  0  0  0  0  0  0  0  0  0  0
  133.2940  135.0830  154.5400 O   0  0  0  0  0  1  0  0  0  0  0  0
  1  2  1  0  0  0  0
  2  3  2  0  0  0  0
  3 11  1  0  0  0  0
  4  3  1  0  0  0  0
  5  4  2  0  0  0  0
  6  1  2  0  0  0  0
  6  5  1  0  0  0  0
  8  7  1  0  0  0  0
  8  1  1  0  0  0  0
  9  6  1  0  0  0  0
 10  9  1  0  0  0  0
 11 12  1  0  0  0  0
 12 13  1  0  0  0  0
 13 14  2  0  0  0  0
 13 15  1  0  0  0  0
M  END
>  <MODEL>
1

>  <REMARK>
 VINA RESULT:    -5.703      0.000      0.000
 INTER + INTRA:          -7.429
 INTER:                  -7.225
 INTRA:                  -0.204
 UNBOUND:                -0.225
  Name = CHEMBL387842
  6 active torsions:
  status: ('A' for Active; 'I' for Inactive)
    1  A    between atoms: C_1  and  O_2
    2  A    between atoms: O_2  and  C_3
    3  A    between atoms: C_5  and  C_6
    4  A    between atoms: C_6  and  C_7
    5  A    between atoms: C_7  and  C_8
    6  A    between atoms: C_13  and  O_14
                            x       y       z     vdW  Elec       q    Type
                         _______ _______ _______ _____ _____    ______ ____

>  <TORSDO>
F 5

>  <SCORE>
-5.703

>  <RMSD_LB>
0.000

>  <RMSD_UB>
0.000

$$$$
CHEMBL387842
 OpenBabel10162523343D

 15 15  0  0  0  0  0  0  0  0999 V2000
  146.2780  139.9580  154.2050 C   0  0  0  0  0  0  0  0  0  0  0  0
  145.6320  140.7120  153.2200 C   0  0  0  0  0  3  0  0  0  0  0  0
  146.2850  141.7810  152.5790 C   0  0  0  0  0  0  0  0  0  0  0  0
  147.6090  142.0740  152.9260 C   0  0  0  0  0  3  0  0  0  0  0  0
  148.2670  141.3250  153.9040 C   0  0  0  0  0  3  0  0  0  0  0  0
  147.6000  140.2780  154.5380 C   0  0  0  0  0  0  0  0  0  0  0  0
  145.5870  137.6760  154.1860 C   0  0  0  0  0  1  0  0  0  0  0  0
  145.7180  138.9060  154.8810 O   0  0  0  0  0  0  0  0  0  0  0  0
  148.2450  139.5450  155.5000 O   0  0  0  0  0  0  0  0  0  0  0  0
  148.4420  139.9310  156.3300 H   0  0  0  0  0  0  0  0  0  0  0  0
  145.5860  142.5730  151.4970 C   0  0  0  0  0  2  0  0  0  0  0  0
  146.2120  142.3830  150.1160 C   0  0  0  0  0  2  0  0  0  0  0  0
  145.9140  141.0070  149.5720 C   0  0  0  0  0  0  0  0  0  0  0  0
  146.7420  140.2300  149.1270 O   0  0  0  0  0  0  0  0  0  0  0  0
  144.5980  140.7030  149.6340 O   0  0  0  0  0  1  0  0  0  0  0  0
  1  6  1  0  0  0  0
  1  8  1  0  0  0  0
  2  1  2  0  0  0  0
  3  4  2  0  0  0  0
  3  2  1  0  0  0  0
  4  5  1  0  0  0  0
  5  6  2  0  0  0  0
  6  9  1  0  0  0  0
  7  8  1  0  0  0  0
  9 10  1  0  0  0  0
 11  3  1  0  0  0  0
 12 11  1  0  0  0  0
 13 15  1  0  0  0  0
 13 12  1  0  0  0  0
 14 13  2  0  0  0  0
M  END
>  <MODEL>
2

>  <REMARK>
 VINA RESULT:    -5.333     13.287     15.336
 INTER + INTRA:          -6.962
 INTER:                  -6.618
 INTRA:                  -0.343
 UNBOUND:                -0.225
  Name = CHEMBL387842
  6 active torsions:
  status: ('A' for Active; 'I' for Inactive)
    1  A    between atoms: C_1  and  O_2
    2  A    between atoms: O_2  and  C_3
    3  A    between atoms: C_5  and  C_6
    4  A    between atoms: C_6  and  C_7
    5  A    between atoms: C_7  and  C_8
    6  A    between atoms: C_13  and  O_14
                            x       y       z     vdW  Elec       q    Type
                         _______ _______ _______ _____ _____    ______ ____

>  <TORSDO>
F 5

>  <SCORE>
-5.333

>  <RMSD_LB>
13.287

>  <RMSD_UB>
15.336

$$$$
CHEMBL387842
 OpenBabel10162523343D

 15 15  0  0  0  0  0  0  0  0999 V2000
  135.6260  135.0560  153.4940 C   0  0  0  0  0  0  0  0  0  0  0  0
  136.5530  135.7110  154.3110 C   0  0  0  0  0  3  0  0  0  0  0  0
  136.3730  135.7780  155.7050 C   0  0  0  0  0  0  0  0  0  0  0  0
  135.2540  135.1580  156.2750 C   0  0  0  0  0  3  0  0  0  0  0  0
  134.3250  134.4960  155.4710 C   0  0  0  0  0  3  0  0  0  0  0  0
  134.5120  134.4510  154.0910 C   0  0  0  0  0  0  0  0  0  0  0  0
  136.1280  136.0980  151.4090 C   0  0  0  0  0  1  0  0  0  0  0  0
  135.7210  134.9460  152.1320 O   0  0  0  0  0  0  0  0  0  0  0  0
  133.5990  133.8040  153.3010 O   0  0  0  0  0  0  0  0  0  0  0  0
  133.8730  133.1030  152.7450 H   0  0  0  0  0  0  0  0  0  0  0  0
  137.3940  136.4660  156.5820 C   0  0  0  0  0  2  0  0  0  0  0  0
  138.4740  137.1980  155.7850 C   0  0  0  0  0  2  0  0  0  0  0  0
  138.0130  138.5820  155.3960 C   0  0  0  0  0  0  0  0  0  0  0  0
  136.9190  139.0590  155.6480 O   0  0  0  0  0  1  0  0  0  0  0  0
  138.9640  139.2710  154.7240 O   0  0  0  0  0  0  0  0  0  0  0  0
  1  6  2  0  0  0  0
  1  2  1  0  0  0  0
  2  3  2  0  0  0  0
  3  4  1  0  0  0  0
  3 11  1  0  0  0  0
  5  4  2  0  0  0  0
  6  5  1  0  0  0  0
  7  8  1  0  0  0  0
  8  1  1  0  0  0  0
  9  6  1  0  0  0  0
 10  9  1  0  0  0  0
 12 11  1  0  0  0  0
 13 14  1  0  0  0  0
 13 12  1  0  0  0  0
 15 13  2  0  0  0  0
M  END
>  <MODEL>
3

>  <REMARK>
 VINA RESULT:    -5.268      4.145      6.054
 INTER + INTRA:          -6.879
 INTER:                  -6.806
 INTRA:                  -0.073
 UNBOUND:                -0.225
  Name = CHEMBL387842
  6 active torsions:
  status: ('A' for Active; 'I' for Inactive)
    1  A    between atoms: C_1  and  O_2
    2  A    between atoms: O_2  and  C_3
    3  A    between atoms: C_5  and  C_6
    4  A    between atoms: C_6  and  C_7
    5  A    between atoms: C_7  and  C_8
    6  A    between atoms: C_13  and  O_14
                            x       y       z     vdW  Elec       q    Type
                         _______ _______ _______ _____ _____    ______ ____

>  <TORSDO>
F 5

>  <SCORE>
-5.268

>  <RMSD_LB>
4.145

>  <RMSD_UB>
6.054

$$$$
CHEMBL387842
 OpenBabel10162523343D

 15 15  0  0  0  0  0  0  0  0999 V2000
  140.5010  138.2830  154.2240 C   0  0  0  0  0  0  0  0  0  0  0  0
  141.8620  138.0370  154.0110 C   0  0  0  0  0  3  0  0  0  0  0  0
  142.3370  137.6280  152.7520 C   0  0  0  0  0  0  0  0  0  0  0  0
  141.4280  137.4870  151.6960 C   0  0  0  0  0  3  0  0  0  0  0  0
  140.0690  137.7360  151.8940 C   0  0  0  0  0  3  0  0  0  0  0  0
  139.6140  138.1270  153.1520 C   0  0  0  0  0  0  0  0  0  0  0  0
  139.8780  137.7160  156.4540 C   0  0  0  0  0  1  0  0  0  0  0  0
  139.9530  138.6800  155.4150 O   0  0  0  0  0  0  0  0  0  0  0  0
  138.2790  138.3680  153.3470 O   0  0  0  0  0  0  0  0  0  0  0  0
  137.6390  137.8100  152.9500 H   0  0  0  0  0  0  0  0  0  0  0  0
  143.8130  137.3890  152.5260 C   0  0  0  0  0  2  0  0  0  0  0  0
  144.5600  137.0030  153.8020 C   0  0  0  0  0  2  0  0  0  0  0  0
  145.6250  138.0200  154.1340 C   0  0  0  0  0  0  0  0  0  0  0  0
  146.5240  137.8630  154.9440 O   0  0  0  0  0  1  0  0  0  0  0  0
  145.4880  139.1600  153.4190 O   0  0  0  0  0  0  0  0  0  0  0  0
  1  8  1  0  0  0  0
  2  1  1  0  0  0  0
  3  2  2  0  0  0  0
  4  5  2  0  0  0  0
  4  3  1  0  0  0  0
  5  6  1  0  0  0  0
  6  9  1  0  0  0  0
  6  1  2  0  0  0  0
  8  7  1  0  0  0  0
 10  9  1  0  0  0  0
 11  3  1  0  0  0  0
 11 12  1  0  0  0  0
 12 13  1  0  0  0  0
 13 14  1  0  0  0  0
 15 13  2  0  0  0  0
M  END
>  <MODEL>
4

>  <REMARK>
 VINA RESULT:    -4.948      8.482     10.569
 INTER + INTRA:          -6.475
 INTER:                  -6.188
 INTRA:                  -0.287
 UNBOUND:                -0.225
  Name = CHEMBL387842
  6 active torsions:
  status: ('A' for Active; 'I' for Inactive)
    1  A    between atoms: C_1  and  O_2
    2  A    between atoms: O_2  and  C_3
    3  A    between atoms: C_5  and  C_6
    4  A    between atoms: C_6  and  C_7
    5  A    between atoms: C_7  and  C_8
    6  A    between atoms: C_13  and  O_14
                            x       y       z     vdW  Elec       q    Type
                         _______ _______ _______ _____ _____    ______ ____

>  <TORSDO>
F 5

>  <SCORE>
-4.948

>  <RMSD_LB>
8.482

>  <RMSD_UB>
10.569

$$$$
CHEMBL387842
 OpenBabel10162523343D

 15 15  0  0  0  0  0  0  0  0999 V2000
  147.2800  139.9830  154.1910 C   0  0  0  0  0  0  0  0  0  0  0  0
  146.1760  139.5410  153.4540 C   0  0  0  0  0  3  0  0  0  0  0  0
  145.4140  140.4350  152.6800 C   0  0  0  0  0  0  0  0  0  0  0  0
  145.7870  141.7840  152.6370 C   0  0  0  0  0  3  0  0  0  0  0  0
  146.8900  142.2370  153.3620 C   0  0  0  0  0  3  0  0  0  0  0  0
  147.6250  141.3400  154.1350 C   0  0  0  0  0  0  0  0  0  0  0  0
  147.4420  138.4500  156.0080 C   0  0  0  0  0  1  0  0  0  0  0  0
  148.0730  139.1850  154.9720 O   0  0  0  0  0  0  0  0  0  0  0  0
  148.7060  141.7850  154.8500 O   0  0  0  0  0  0  0  0  0  0  0  0
  148.7670  142.6880  155.0940 H   0  0  0  0  0  0  0  0  0  0  0  0
  144.2380  139.9410  151.8670 C   0  0  0  0  0  2  0  0  0  0  0  0
  143.1770  139.2380  152.7140 C   0  0  0  0  0  2  0  0  0  0  0  0
  143.0540  137.7850  152.3280 C   0  0  0  0  0  0  0  0  0  0  0  0
  143.9880  137.0280  152.1180 O   0  0  0  0  0  0  0  0  0  0  0  0
  141.7660  137.3820  152.2390 O   0  0  0  0  0  1  0  0  0  0  0  0
  1  8  1  0  0  0  0
  2  1  2  0  0  0  0
  3  2  1  0  0  0  0
  4  3  2  0  0  0  0
  4  5  1  0  0  0  0
  5  6  2  0  0  0  0
  6  1  1  0  0  0  0
  6  9  1  0  0  0  0
  8  7  1  0  0  0  0
  9 10  1  0  0  0  0
 11  3  1  0  0  0  0
 11 12  1  0  0  0  0
 13 12  1  0  0  0  0
 14 13  2  0  0  0  0
 15 13  1  0  0  0  0
M  END
>  <MODEL>
5

>  <REMARK>
 VINA RESULT:    -4.857     12.280     14.496
 INTER + INTRA:          -6.360
 INTER:                  -6.072
 INTRA:                  -0.287
 UNBOUND:                -0.225
  Name = CHEMBL387842
  6 active torsions:
  status: ('A' for Active; 'I' for Inactive)
    1  A    between atoms: C_1  and  O_2
    2  A    between atoms: O_2  and  C_3
    3  A    between atoms: C_5  and  C_6
    4  A    between atoms: C_6  and  C_7
    5  A    between atoms: C_7  and  C_8
    6  A    between atoms: C_13  and  O_14
                            x       y       z     vdW  Elec       q    Type
                         _______ _______ _______ _____ _____    ______ ____

>  <TORSDO>
F 5

>  <SCORE>
-4.857

>  <RMSD_LB>
12.280

>  <RMSD_UB>
14.496

$$$$
CHEMBL387842
 OpenBabel10162523343D

 15 15  0  0  0  0  0  0  0  0999 V2000
  140.0600  138.3300  154.5820 C   0  0  0  0  0  0  0  0  0  0  0  0
  141.2070  137.9280  153.8900 C   0  0  0  0  0  3  0  0  0  0  0  0
  141.1910  137.7640  152.4930 C   0  0  0  0  0  0  0  0  0  0  0  0
  140.0090  138.0300  151.7910 C   0  0  0  0  0  3  0  0  0  0  0  0
  138.8600  138.4390  152.4690 C   0  0  0  0  0  3  0  0  0  0  0  0
  138.8890  138.5820  153.8550 C   0  0  0  0  0  0  0  0  0  0  0  0
  140.2940  137.3980  156.7640 C   0  0  0  0  0  1  0  0  0  0  0  0
  139.9850  138.5100  155.9380 O   0  0  0  0  0  0  0  0  0  0  0  0
  137.7600  138.9800  154.5220 O   0  0  0  0  0  0  0  0  0  0  0  0
  137.8290  139.3710  155.3700 H   0  0  0  0  0  0  0  0  0  0  0  0
  142.4440  137.3530  151.7510 C   0  0  0  0  0  2  0  0  0  0  0  0
  142.1530  136.7050  150.3970 C   0  0  0  0  0  2  0  0  0  0  0  0
  143.4050  136.6240  149.5570 C   0  0  0  0  0  0  0  0  0  0  0  0
  143.6380  137.3020  148.5710 O   0  0  0  0  0  0  0  0  0  0  0  0
  144.2770  135.7000  150.0220 O   0  0  0  0  0  1  0  0  0  0  0  0
  1  8  1  0  0  0  0
  2  1  1  0  0  0  0
  3  2  2  0  0  0  0
  4  5  2  0  0  0  0
  4  3  1  0  0  0  0
  5  6  1  0  0  0  0
  6  9  1  0  0  0  0
  6  1  2  0  0  0  0
  8  7  1  0  0  0  0
  9 10  1  0  0  0  0
 11  3  1  0  0  0  0
 12 11  1  0  0  0  0
 13 15  1  0  0  0  0
 13 12  1  0  0  0  0
 14 13  2  0  0  0  0
M  END
>  <MODEL>
6

>  <REMARK>
 VINA RESULT:    -4.796      7.603     10.021
 INTER + INTRA:          -6.283
 INTER:                  -6.064
 INTRA:                  -0.219
 UNBOUND:                -0.225
  Name = CHEMBL387842
  6 active torsions:
  status: ('A' for Active; 'I' for Inactive)
    1  A    between atoms: C_1  and  O_2
    2  A    between atoms: O_2  and  C_3
    3  A    between atoms: C_5  and  C_6
    4  A    between atoms: C_6  and  C_7
    5  A    between atoms: C_7  and  C_8
    6  A    between atoms: C_13  and  O_14
                            x       y       z     vdW  Elec       q    Type
                         _______ _______ _______ _____ _____    ______ ____

>  <TORSDO>
F 5

>  <SCORE>
-4.796

>  <RMSD_LB>
7.603

>  <RMSD_UB>
10.021

$$$$
CHEMBL387842
 OpenBabel10162523343D

 15 15  0  0  0  0  0  0  0  0999 V2000
  134.8950  135.2680  150.1540 C   0  0  0  0  0  0  0  0  0  0  0  0
  135.8300  136.0980  150.7800 C   0  0  0  0  0  3  0  0  0  0  0  0
  136.1530  135.9330  152.1390 C   0  0  0  0  0  0  0  0  0  0  0  0
  135.5360  134.9060  152.8640 C   0  0  0  0  0  3  0  0  0  0  0  0
  134.6050  134.0670  152.2500 C   0  0  0  0  0  3  0  0  0  0  0  0
  134.2870  134.2530  150.9050 C   0  0  0  0  0  0  0  0  0  0  0  0
  133.6830  136.4460  148.4720 C   0  0  0  0  0  1  0  0  0  0  0  0
  134.5190  135.3590  148.8400 O   0  0  0  0  0  0  0  0  0  0  0  0
  133.3710  133.4310  150.3030 O   0  0  0  0  0  0  0  0  0  0  0  0
  132.6020  133.1660  150.7680 H   0  0  0  0  0  0  0  0  0  0  0  0
  137.1850  136.8200  152.8000 C   0  0  0  0  0  2  0  0  0  0  0  0
  137.0720  136.8380  154.3240 C   0  0  0  0  0  2  0  0  0  0  0  0
  137.8520  137.9900  154.9090 C   0  0  0  0  0  0  0  0  0  0  0  0
  139.0680  138.0870  154.9180 O   0  0  0  0  0  0  0  0  0  0  0  0
  137.0480  138.9420  155.4360 O   0  0  0  0  0  1  0  0  0  0  0  0
  1  2  2  0  0  0  0
  1  6  1  0  0  0  0
  2  3  1  0  0  0  0
  3 11  1  0  0  0  0
  3  4  2  0  0  0  0
  5  4  1  0  0  0  0
  6  5  2  0  0  0  0
  7  8  1  0  0  0  0
  8  1  1  0  0  0  0
  9 10  1  0  0  0  0
  9  6  1  0  0  0  0
 11 12  1  0  0  0  0
 12 13  1  0  0  0  0
 13 14  2  0  0  0  0
 13 15  1  0  0  0  0
M  END
>  <MODEL>
7

>  <REMARK>
 VINA RESULT:    -4.685      2.825      3.758
 INTER + INTRA:          -6.142
 INTER:                  -5.928
 INTRA:                  -0.215
 UNBOUND:                -0.225
  Name = CHEMBL387842
  6 active torsions:
  status: ('A' for Active; 'I' for Inactive)
    1  A    between atoms: C_1  and  O_2
    2  A    between atoms: O_2  and  C_3
    3  A    between atoms: C_5  and  C_6
    4  A    between atoms: C_6  and  C_7
    5  A    between atoms: C_7  and  C_8
    6  A    between atoms: C_13  and  O_14
                            x       y       z     vdW  Elec       q    Type
                         _______ _______ _______ _____ _____    ______ ____

>  <TORSDO>
F 5

>  <SCORE>
-4.685

>  <RMSD_LB>
2.825

>  <RMSD_UB>
3.758

$$$$
CHEMBL387842
 OpenBabel10162523343D

 15 15  0  0  0  0  0  0  0  0999 V2000
  146.0270  139.4150  149.4180 C   0  0  0  0  0  0  0  0  0  0  0  0
  146.8490  140.2590  150.1720 C   0  0  0  0  0  3  0  0  0  0  0  0
  146.3020  141.2530  151.0040 C   0  0  0  0  0  0  0  0  0  0  0  0
  144.9100  141.3780  151.0870 C   0  0  0  0  0  3  0  0  0  0  0  0
  144.0780  140.5380  150.3440 C   0  0  0  0  0  3  0  0  0  0  0  0
  144.6380  139.5680  149.5140 C   0  0  0  0  0  0  0  0  0  0  0  0
  147.3100  138.8120  147.5010 C   0  0  0  0  0  1  0  0  0  0  0  0
  146.4740  138.4270  148.5810 O   0  0  0  0  0  0  0  0  0  0  0  0
  143.8220  138.7460  148.7830 O   0  0  0  0  0  0  0  0  0  0  0  0
  144.1910  138.1500  148.1630 H   0  0  0  0  0  0  0  0  0  0  0  0
  147.1990  142.1430  151.8350 C   0  0  0  0  0  2  0  0  0  0  0  0
  146.7870  142.2050  153.3050 C   0  0  0  0  0  2  0  0  0  0  0  0
  147.8400  141.5810  154.1880 C   0  0  0  0  0  0  0  0  0  0  0  0
  148.8750  142.1200  154.5420 O   0  0  0  0  0  0  0  0  0  0  0  0
  147.5140  140.3240  154.5700 O   0  0  0  0  0  1  0  0  0  0  0  0
  1  6  2  0  0  0  0
  1  2  1  0  0  0  0
  2  3  2  0  0  0  0
  3  4  1  0  0  0  0
  3 11  1  0  0  0  0
  5  4  2  0  0  0  0
  6  5  1  0  0  0  0
  7  8  1  0  0  0  0
  8  1  1  0  0  0  0
  9  6  1  0  0  0  0
 10  9  1  0  0  0  0
 11 12  1  0  0  0  0
 12 13  1  0  0  0  0
 13 14  2  0  0  0  0
 13 15  1  0  0  0  0
M  END
>  <MODEL>
8

>  <REMARK>
 VINA RESULT:    -4.577     13.342     14.234
 INTER + INTRA:          -6.006
 INTER:                  -5.741
 INTRA:                  -0.266
 UNBOUND:                -0.225
  Name = CHEMBL387842
  6 active torsions:
  status: ('A' for Active; 'I' for Inactive)
    1  A    between atoms: C_1  and  O_2
    2  A    between atoms: O_2  and  C_3
    3  A    between atoms: C_5  and  C_6
    4  A    between atoms: C_6  and  C_7
    5  A    between atoms: C_7  and  C_8
    6  A    between atoms: C_13  and  O_14
                            x       y       z     vdW  Elec       q    Type
                         _______ _______ _______ _____ _____    ______ ____

>  <TORSDO>
F 5

>  <SCORE>
-4.577

>  <RMSD_LB>
13.342

>  <RMSD_UB>
14.234

$$$$
CHEMBL387842
 OpenBabel10162523343D

 15 15  0  0  0  0  0  0  0  0999 V2000
  135.2510  134.8430  151.4690 C   0  0  0  0  0  0  0  0  0  0  0  0
  136.1940  135.7750  151.9140 C   0  0  0  0  0  3  0  0  0  0  0  0
  136.3670  136.0350  153.2860 C   0  0  0  0  0  0  0  0  0  0  0  0
  135.5910  135.3300  154.2140 C   0  0  0  0  0  3  0  0  0  0  0  0
  134.6500  134.3920  153.7840 C   0  0  0  0  0  3  0  0  0  0  0  0
  134.4830  134.1570  152.4200 C   0  0  0  0  0  0  0  0  0  0  0  0
  134.3640  135.5080  149.3590 C   0  0  0  0  0  1  0  0  0  0  0  0
  135.0140  134.5310  150.1570 O   0  0  0  0  0  0  0  0  0  0  0  0
  133.5580  133.2390  151.9970 O   0  0  0  0  0  0  0  0  0  0  0  0
  132.7270  133.1800  152.4250 H   0  0  0  0  0  0  0  0  0  0  0  0
  137.4070  137.0270  153.7580 C   0  0  0  0  0  2  0  0  0  0  0  0
  138.1440  137.7140  152.6090 C   0  0  0  0  0  2  0  0  0  0  0  0
  139.6150  137.8510  152.9160 C   0  0  0  0  0  0  0  0  0  0  0  0
  140.0820  138.3170  153.9420 O   0  0  0  0  0  1  0  0  0  0  0  0
  140.3960  137.3840  151.9140 O   0  0  0  0  0  0  0  0  0  0  0  0
  1  2  2  0  0  0  0
  1  6  1  0  0  0  0
  2  3  1  0  0  0  0
  3 11  1  0  0  0  0
  3  4  2  0  0  0  0
  5  4  1  0  0  0  0
  6  5  2  0  0  0  0
  7  8  1  0  0  0  0
  8  1  1  0  0  0  0
  9  6  1  0  0  0  0
  9 10  1  0  0  0  0
 12 13  1  0  0  0  0
 12 11  1  0  0  0  0
 13 14  1  0  0  0  0
 15 13  2  0  0  0  0
M  END
>  <MODEL>
9

>  <REMARK>
 VINA RESULT:    -4.405      3.574      5.051
 INTER + INTRA:          -5.790
 INTER:                  -5.564
 INTRA:                  -0.225
 UNBOUND:                -0.225
  Name = CHEMBL387842
  6 active torsions:
  status: ('A' for Active; 'I' for Inactive)
    1  A    between atoms: C_1  and  O_2
    2  A    between atoms: O_2  and  C_3
    3  A    between atoms: C_5  and  C_6
    4  A    between atoms: C_6  and  C_7
    5  A    between atoms: C_7  and  C_8
    6  A    between atoms: C_13  and  O_14
                            x       y       z     vdW  Elec       q    Type
                         _______ _______ _______ _____ _____    ______ ____

>  <TORSDO>
F 5

>  <SCORE>
-4.405

>  <RMSD_LB>
3.574

>  <RMSD_UB>
5.051

$$$$
