CHEMBL1401982
 OpenBabel10162523373D

 28 30  0  0  0  0  0  0  0  0999 V2000
  146.0610  136.8770  151.8000 N   0  0  0  0  0  0  0  0  0  0  0  0
  146.8470  137.9810  151.5860 C   0  0  0  0  0  0  0  0  0  0  0  0
  146.7280  138.6900  150.5930 O   0  0  0  0  0  0  0  0  0  0  0  0
  146.2550  136.2810  152.5600 H   0  0  0  0  0  0  0  0  0  0  0  0
  144.9500  136.5810  150.9250 C   0  0  0  0  0  2  0  0  0  0  0  0
  141.1510  137.7440  152.6400 C   0  0  0  0  0  0  0  0  0  0  0  0
  142.3230  137.7770  153.4080 C   0  0  0  0  0  3  0  0  0  0  0  0
  143.5570  137.4290  152.8490 C   0  0  0  0  0  3  0  0  0  0  0  0
  143.6410  137.0190  151.5140 C   0  0  0  0  0  0  0  0  0  0  0  0
  142.4750  137.0000  150.7440 C   0  0  0  0  0  3  0  0  0  0  0  0
  141.2360  137.3640  151.2880 C   0  0  0  0  0  0  0  0  0  0  0  0
  139.8560  138.6460  154.4260 C   0  0  0  0  0  1  0  0  0  0  0  0
  139.9100  137.9880  153.1660 O   0  0  0  0  0  0  0  0  0  0  0  0
  140.2050  137.2420  150.3950 O   0  0  0  0  0  0  0  0  0  0  0  0
  140.0210  138.3210  149.4840 C   0  0  0  0  0  1  0  0  0  0  0  0
  147.8810  138.2540  152.6620 C   0  0  0  0  0  2  0  0  0  0  0  0
  147.1170  138.7220  153.8890 C   0  0  0  0  0  2  0  0  0  0  0  0
  147.1010  140.1390  154.2290 N   0  0  0  0  0  0  0  0  0  0  0  0
  145.8990  140.7010  153.8380 C   0  0  0  0  0  0  0  0  0  0  0  0
  144.7710  140.4320  154.2140 O   0  0  0  0  0  0  0  0  0  0  0  0
  146.1910  141.5540  152.6920 C   0  0  0  0  0  0  0  0  0  0  0  0
  145.3820  141.8540  151.6190 C   0  0  0  0  0  3  0  0  0  0  0  0
  146.0080  142.3600  150.4770 C   0  0  0  0  0  3  0  0  0  0  0  0
  147.4010  142.5820  150.4520 C   0  0  0  0  0  3  0  0  0  0  0  0
  148.1990  142.2670  151.5540 C   0  0  0  0  0  3  0  0  0  0  0  0
  147.5600  141.7220  152.6480 C   0  0  0  0  0  0  0  0  0  0  0  0
  148.1280  140.9070  153.7190 C   0  0  0  0  0  0  0  0  0  0  0  0
  149.3110  140.8850  154.0070 O   0  0  0  0  0  0  0  0  0  0  0  0
  1  4  1  0  0  0  0
  2  1  1  0  0  0  0
  2 16  1  0  0  0  0
  3  2  2  0  0  0  0
  5  9  1  0  0  0  0
  5  1  1  0  0  0  0
  6 13  1  0  0  0  0
  6  7  1  0  0  0  0
  8  7  2  0  0  0  0
  9  8  1  0  0  0  0
 10 11  1  0  0  0  0
 10  9  2  0  0  0  0
 11  6  2  0  0  0  0
 13 12  1  0  0  0  0
 14 11  1  0  0  0  0
 15 14  1  0  0  0  0
 16 17  1  0  0  0  0
 17 18  1  0  0  0  0
 19 20  2  0  0  0  0
 19 18  1  0  0  0  0
 21 19  1  0  0  0  0
 22 21  2  0  0  0  0
 23 22  1  0  0  0  0
 24 23  2  0  0  0  0
 24 25  1  0  0  0  0
 25 26  2  0  0  0  0
 26 21  1  0  0  0  0
 26 27  1  0  0  0  0
 27 28  2  0  0  0  0
 27 18  1  0  0  0  0
M  END
>  <MODEL>
1

>  <REMARK>
 VINA RESULT:    -8.306      0.000      0.000
 INTER + INTRA:         -12.503
 INTER:                 -11.022
 INTRA:                  -1.481
 UNBOUND:                -0.799
  Name = CHEMBL1401982
  9 active torsions:
  status: ('A' for Active; 'I' for Inactive)
    1  A    between atoms: C_1  and  O_2
    2  A    between atoms: O_2  and  C_3
    3  A    between atoms: C_6  and  C_7
    4  A    between atoms: C_7  and  N_8
    5  A    between atoms: C_9  and  C_11
    6  A    between atoms: C_11  and  C_12
    7  A    between atoms: C_12  and  N_13
    8  A    between atoms: C_25  and  O_26
    9  A    between atoms: O_26  and  C_27
                            x       y       z     vdW  Elec       q    Type
                         _______ _______ _______ _____ _____    ______ ____

>  <TORSDO>
F 7

>  <SCORE>
-8.306

>  <RMSD_LB>
0.000

>  <RMSD_UB>
0.000

$$$$
CHEMBL1401982
 OpenBabel10162523373D

 28 30  0  0  0  0  0  0  0  0999 V2000
  144.2790  137.9990  151.5730 N   0  0  0  0  0  0  0  0  0  0  0  0
  145.4880  137.5970  151.0640 C   0  0  0  0  0  0  0  0  0  0  0  0
  145.7500  136.4190  150.8450 O   0  0  0  0  0  0  0  0  0  0  0  0
  144.1470  138.9410  151.8250 H   0  0  0  0  0  0  0  0  0  0  0  0
  143.1970  137.0550  151.7380 C   0  0  0  0  0  2  0  0  0  0  0  0
  139.7730  138.7360  153.7840 C   0  0  0  0  0  0  0  0  0  0  0  0
  141.0440  138.7590  154.3760 C   0  0  0  0  0  3  0  0  0  0  0  0
  142.1580  138.2430  153.7060 C   0  0  0  0  0  3  0  0  0  0  0  0
  142.0200  137.6710  152.4370 C   0  0  0  0  0  0  0  0  0  0  0  0
  140.7560  137.6610  151.8390 C   0  0  0  0  0  3  0  0  0  0  0  0
  139.6370  138.1920  152.4940 C   0  0  0  0  0  0  0  0  0  0  0  0
  138.0340  138.2190  155.3280 C   0  0  0  0  0  1  0  0  0  0  0  0
  138.6410  139.1460  154.4360 O   0  0  0  0  0  0  0  0  0  0  0  0
  138.4820  138.0530  151.7710 O   0  0  0  0  0  0  0  0  0  0  0  0
  138.4960  138.5670  150.4430 C   0  0  0  0  0  1  0  0  0  0  0  0
  146.4820  138.7130  150.8050 C   0  0  0  0  0  2  0  0  0  0  0  0
  145.7220  139.8100  150.0770 C   0  0  0  0  0  2  0  0  0  0  0  0
  145.5640  141.1140  150.7060 N   0  0  0  0  0  0  0  0  0  0  0  0
  146.5370  141.9790  150.2390 C   0  0  0  0  0  0  0  0  0  0  0  0
  146.7310  142.3700  149.1010 O   0  0  0  0  0  0  0  0  0  0  0  0
  147.4720  142.1860  151.3380 C   0  0  0  0  0  0  0  0  0  0  0  0
  148.8260  142.4350  151.2770 C   0  0  0  0  0  3  0  0  0  0  0  0
  149.5640  142.2070  152.4420 C   0  0  0  0  0  3  0  0  0  0  0  0
  148.9320  141.7770  153.6280 C   0  0  0  0  0  3  0  0  0  0  0  0
  147.5590  141.5300  153.6620 C   0  0  0  0  0  3  0  0  0  0  0  0
  146.8640  141.7160  152.4850 C   0  0  0  0  0  0  0  0  0  0  0  0
  145.5830  141.1400  152.0850 C   0  0  0  0  0  0  0  0  0  0  0  0
  144.7570  140.7010  152.8660 O   0  0  0  0  0  0  0  0  0  0  0  0
  1  5  1  0  0  0  0
  1  4  1  0  0  0  0
  2  1  1  0  0  0  0
  3  2  2  0  0  0  0
  5  9  1  0  0  0  0
  6  7  1  0  0  0  0
  6 13  1  0  0  0  0
  8  7  2  0  0  0  0
  9  8  1  0  0  0  0
 10  9  2  0  0  0  0
 10 11  1  0  0  0  0
 11  6  2  0  0  0  0
 13 12  1  0  0  0  0
 14 11  1  0  0  0  0
 15 14  1  0  0  0  0
 16  2  1  0  0  0  0
 17 18  1  0  0  0  0
 17 16  1  0  0  0  0
 18 27  1  0  0  0  0
 19 18  1  0  0  0  0
 19 21  1  0  0  0  0
 20 19  2  0  0  0  0
 21 26  1  0  0  0  0
 22 21  2  0  0  0  0
 22 23  1  0  0  0  0
 23 24  2  0  0  0  0
 24 25  1  0  0  0  0
 26 25  2  0  0  0  0
 27 26  1  0  0  0  0
 27 28  2  0  0  0  0
M  END
>  <MODEL>
2

>  <REMARK>
 VINA RESULT:    -7.897      1.854      2.916
 INTER + INTRA:         -11.928
 INTER:                 -10.799
 INTRA:                  -1.129
 UNBOUND:                -0.799
  Name = CHEMBL1401982
  9 active torsions:
  status: ('A' for Active; 'I' for Inactive)
    1  A    between atoms: C_1  and  O_2
    2  A    between atoms: O_2  and  C_3
    3  A    between atoms: C_6  and  C_7
    4  A    between atoms: C_7  and  N_8
    5  A    between atoms: C_9  and  C_11
    6  A    between atoms: C_11  and  C_12
    7  A    between atoms: C_12  and  N_13
    8  A    between atoms: C_25  and  O_26
    9  A    between atoms: O_26  and  C_27
                            x       y       z     vdW  Elec       q    Type
                         _______ _______ _______ _____ _____    ______ ____

>  <TORSDO>
F 7

>  <SCORE>
-7.897

>  <RMSD_LB>
1.854

>  <RMSD_UB>
2.916

$$$$
CHEMBL1401982
 OpenBabel10162523373D

 28 30  0  0  0  0  0  0  0  0999 V2000
  144.6190  136.7490  150.6410 N   0  0  0  0  0  0  0  0  0  0  0  0
  145.5010  137.7020  150.1970 C   0  0  0  0  0  0  0  0  0  0  0  0
  145.4500  138.1690  149.0640 O   0  0  0  0  0  0  0  0  0  0  0  0
  144.7570  136.3310  151.5220 H   0  0  0  0  0  0  0  0  0  0  0  0
  143.4890  136.3560  149.8310 C   0  0  0  0  0  2  0  0  0  0  0  0
  139.7500  137.6540  151.5830 C   0  0  0  0  0  0  0  0  0  0  0  0
  139.7790  137.0600  150.3140 C   0  0  0  0  0  3  0  0  0  0  0  0
  140.9810  136.6130  149.7570 C   0  0  0  0  0  3  0  0  0  0  0  0
  142.1860  136.7720  150.4490 C   0  0  0  0  0  0  0  0  0  0  0  0
  142.1570  137.3510  151.7210 C   0  0  0  0  0  3  0  0  0  0  0  0
  140.9560  137.7860  152.2970 C   0  0  0  0  0  0  0  0  0  0  0  0
  137.7650  137.3040  152.8540 C   0  0  0  0  0  1  0  0  0  0  0  0
  138.6140  138.1880  152.1310 O   0  0  0  0  0  0  0  0  0  0  0  0
  141.1330  138.3630  153.5250 O   0  0  0  0  0  0  0  0  0  0  0  0
  142.3900  138.1450  154.1580 C   0  0  0  0  0  1  0  0  0  0  0  0
  146.5530  138.1260  151.2060 C   0  0  0  0  0  2  0  0  0  0  0  0
  145.8470  138.2330  152.5480 C   0  0  0  0  0  2  0  0  0  0  0  0
  145.7390  139.5310  153.2010 N   0  0  0  0  0  0  0  0  0  0  0  0
  145.1040  140.4270  152.3600 C   0  0  0  0  0  0  0  0  0  0  0  0
  143.9740  140.3790  151.9040 O   0  0  0  0  0  0  0  0  0  0  0  0
  146.1220  141.3670  151.9070 C   0  0  0  0  0  0  0  0  0  0  0  0
  146.1980  142.0350  150.7050 C   0  0  0  0  0  3  0  0  0  0  0  0
  147.4440  142.5620  150.3520 C   0  0  0  0  0  3  0  0  0  0  0  0
  148.5540  142.4400  151.2160 C   0  0  0  0  0  3  0  0  0  0  0  0
  148.4490  141.7550  152.4280 C   0  0  0  0  0  3  0  0  0  0  0  0
  147.2210  141.2030  152.7260 C   0  0  0  0  0  0  0  0  0  0  0  0
  146.9160  140.1020  153.6370 C   0  0  0  0  0  0  0  0  0  0  0  0
  147.6460  139.7440  154.5440 O   0  0  0  0  0  0  0  0  0  0  0  0
  1  4  1  0  0  0  0
  2  1  1  0  0  0  0
  2 16  1  0  0  0  0
  3  2  2  0  0  0  0
  5  9  1  0  0  0  0
  5  1  1  0  0  0  0
  6 13  1  0  0  0  0
  6 11  1  0  0  0  0
  7  6  2  0  0  0  0
  8  7  1  0  0  0  0
  8  9  2  0  0  0  0
  9 10  1  0  0  0  0
 10 11  2  0  0  0  0
 11 14  1  0  0  0  0
 13 12  1  0  0  0  0
 14 15  1  0  0  0  0
 16 17  1  0  0  0  0
 17 18  1  0  0  0  0
 18 27  1  0  0  0  0
 19 18  1  0  0  0  0
 20 19  2  0  0  0  0
 21 19  1  0  0  0  0
 21 26  1  0  0  0  0
 22 21  2  0  0  0  0
 23 22  1  0  0  0  0
 23 24  2  0  0  0  0
 24 25  1  0  0  0  0
 25 26  2  0  0  0  0
 26 27  1  0  0  0  0
 27 28  2  0  0  0  0
M  END
>  <MODEL>
3

>  <REMARK>
 VINA RESULT:    -7.533      1.491      2.292
 INTER + INTRA:         -11.415
 INTER:                 -10.161
 INTRA:                  -1.254
 UNBOUND:                -0.799
  Name = CHEMBL1401982
  9 active torsions:
  status: ('A' for Active; 'I' for Inactive)
    1  A    between atoms: C_1  and  O_2
    2  A    between atoms: O_2  and  C_3
    3  A    between atoms: C_6  and  C_7
    4  A    between atoms: C_7  and  N_8
    5  A    between atoms: C_9  and  C_11
    6  A    between atoms: C_11  and  C_12
    7  A    between atoms: C_12  and  N_13
    8  A    between atoms: C_25  and  O_26
    9  A    between atoms: O_26  and  C_27
                            x       y       z     vdW  Elec       q    Type
                         _______ _______ _______ _____ _____    ______ ____

>  <TORSDO>
F 7

>  <SCORE>
-7.533

>  <RMSD_LB>
1.491

>  <RMSD_UB>
2.292

$$$$
CHEMBL1401982
 OpenBabel10162523373D

 28 30  0  0  0  0  0  0  0  0999 V2000
  142.9650  139.0200  150.5440 N   0  0  0  0  0  0  0  0  0  0  0  0
  141.6520  139.0090  150.9390 C   0  0  0  0  0  0  0  0  0  0  0  0
  140.9850  140.0340  151.0340 O   0  0  0  0  0  0  0  0  0  0  0  0
  143.4900  138.1870  150.5760 H   0  0  0  0  0  0  0  0  0  0  0  0
  143.5870  140.2380  150.0790 C   0  0  0  0  0  2  0  0  0  0  0  0
  147.1960  141.1740  152.2780 C   0  0  0  0  0  0  0  0  0  0  0  0
  146.5130  142.1690  151.5640 C   0  0  0  0  0  3  0  0  0  0  0  0
  145.3310  141.8760  150.8760 C   0  0  0  0  0  3  0  0  0  0  0  0
  144.8180  140.5750  150.8690 C   0  0  0  0  0  0  0  0  0  0  0  0
  145.4900  139.5850  151.5920 C   0  0  0  0  0  3  0  0  0  0  0  0
  146.6650  139.8710  152.3000 C   0  0  0  0  0  0  0  0  0  0  0  0
  148.3720  141.8320  154.2420 C   0  0  0  0  0  1  0  0  0  0  0  0
  148.4010  141.3910  152.8900 O   0  0  0  0  0  0  0  0  0  0  0  0
  147.2000  138.7690  152.9100 O   0  0  0  0  0  0  0  0  0  0  0  0
  146.7380  138.4810  154.2260 C   0  0  0  0  0  1  0  0  0  0  0  0
  141.0860  137.6380  151.2610 C   0  0  0  0  0  2  0  0  0  0  0  0
  140.4870  137.7340  152.6550 C   0  0  0  0  0  2  0  0  0  0  0  0
  139.1820  138.3560  152.8340 N   0  0  0  0  0  0  0  0  0  0  0  0
  139.0950  138.9050  154.1010 C   0  0  0  0  0  0  0  0  0  0  0  0
  139.7670  139.7920  154.5980 O   0  0  0  0  0  0  0  0  0  0  0  0
  138.1740  138.0640  154.8560 C   0  0  0  0  0  0  0  0  0  0  0  0
  138.1730  137.7910  156.2070 C   0  0  0  0  0  3  0  0  0  0  0  0
  137.4520  136.6700  156.6250 C   0  0  0  0  0  3  0  0  0  0  0  0
  136.7320  135.8840  155.7000 C   0  0  0  0  0  3  0  0  0  0  0  0
  136.7510  136.1820  154.3360 C   0  0  0  0  0  3  0  0  0  0  0  0
  137.5120  137.2650  153.9470 C   0  0  0  0  0  0  0  0  0  0  0  0
  138.0810  137.5490  152.6320 C   0  0  0  0  0  0  0  0  0  0  0  0
  137.6710  137.0680  151.5910 O   0  0  0  0  0  0  0  0  0  0  0  0
  1  4  1  0  0  0  0
  1  2  1  0  0  0  0
  2  3  2  0  0  0  0
  2 16  1  0  0  0  0
  5  1  1  0  0  0  0
  5  9  1  0  0  0  0
  6 11  1  0  0  0  0
  6 13  1  0  0  0  0
  7  6  2  0  0  0  0
  8  7  1  0  0  0  0
  9  8  2  0  0  0  0
  9 10  1  0  0  0  0
 10 11  2  0  0  0  0
 11 14  1  0  0  0  0
 13 12  1  0  0  0  0
 14 15  1  0  0  0  0
 16 17  1  0  0  0  0
 17 18  1  0  0  0  0
 18 19  1  0  0  0  0
 19 20  2  0  0  0  0
 19 21  1  0  0  0  0
 21 22  1  0  0  0  0
 22 23  2  0  0  0  0
 24 23  1  0  0  0  0
 25 24  2  0  0  0  0
 26 25  1  0  0  0  0
 26 21  2  0  0  0  0
 27 18  1  0  0  0  0
 27 26  1  0  0  0  0
 28 27  2  0  0  0  0
M  END
>  <MODEL>
4

>  <REMARK>
 VINA RESULT:    -7.380      2.705      8.335
 INTER + INTRA:         -11.199
 INTER:                 -10.498
 INTRA:                  -0.701
 UNBOUND:                -0.799
  Name = CHEMBL1401982
  9 active torsions:
  status: ('A' for Active; 'I' for Inactive)
    1  A    between atoms: C_1  and  O_2
    2  A    between atoms: O_2  and  C_3
    3  A    between atoms: C_6  and  C_7
    4  A    between atoms: C_7  and  N_8
    5  A    between atoms: C_9  and  C_11
    6  A    between atoms: C_11  and  C_12
    7  A    between atoms: C_12  and  N_13
    8  A    between atoms: C_25  and  O_26
    9  A    between atoms: O_26  and  C_27
                            x       y       z     vdW  Elec       q    Type
                         _______ _______ _______ _____ _____    ______ ____

>  <TORSDO>
F 7

>  <SCORE>
-7.380

>  <RMSD_LB>
2.705

>  <RMSD_UB>
8.335

$$$$
CHEMBL1401982
 OpenBabel10162523373D

 28 30  0  0  0  0  0  0  0  0999 V2000
  141.7030  138.9640  150.5660 N   0  0  0  0  0  0  0  0  0  0  0  0
  142.9700  138.9920  150.0410 C   0  0  0  0  0  0  0  0  0  0  0  0
  143.5740  137.9720  149.7280 O   0  0  0  0  0  0  0  0  0  0  0  0
  141.2930  139.7980  150.8940 H   0  0  0  0  0  0  0  0  0  0  0  0
  140.9620  137.7260  150.6410 C   0  0  0  0  0  2  0  0  0  0  0  0
  138.0820  137.8520  153.8700 C   0  0  0  0  0  0  0  0  0  0  0  0
  137.7260  137.3470  152.6120 C   0  0  0  0  0  3  0  0  0  0  0  0
  138.6620  137.2770  151.5750 C   0  0  0  0  0  3  0  0  0  0  0  0
  139.9690  137.7350  151.7670 C   0  0  0  0  0  0  0  0  0  0  0  0
  140.3300  138.2260  153.0260 C   0  0  0  0  0  3  0  0  0  0  0  0
  139.4060  138.2830  154.0770 C   0  0  0  0  0  0  0  0  0  0  0  0
  137.0220  136.9460  155.8010 C   0  0  0  0  0  1  0  0  0  0  0  0
  137.1800  138.0230  154.8860 O   0  0  0  0  0  0  0  0  0  0  0  0
  139.9290  138.8310  155.2170 O   0  0  0  0  0  0  0  0  0  0  0  0
  140.8420  138.0230  155.9530 C   0  0  0  0  0  1  0  0  0  0  0  0
  143.5730  140.3760  149.8860 C   0  0  0  0  0  2  0  0  0  0  0  0
  144.4600  140.6000  151.1000 C   0  0  0  0  0  2  0  0  0  0  0  0
  145.5540  139.6780  151.3700 N   0  0  0  0  0  0  0  0  0  0  0  0
  145.7670  139.5920  152.7340 C   0  0  0  0  0  0  0  0  0  0  0  0
  145.0080  139.2020  153.6040 O   0  0  0  0  0  0  0  0  0  0  0  0
  147.0240  140.2800  153.0030 C   0  0  0  0  0  0  0  0  0  0  0  0
  147.3970  140.9740  154.1340 C   0  0  0  0  0  3  0  0  0  0  0  0
  148.4680  141.8620  154.0060 C   0  0  0  0  0  3  0  0  0  0  0  0
  149.1500  142.0040  152.7790 C   0  0  0  0  0  3  0  0  0  0  0  0
  148.7510  141.2890  151.6470 C   0  0  0  0  0  3  0  0  0  0  0  0
  147.6590  140.4580  151.7910 C   0  0  0  0  0  0  0  0  0  0  0  0
  146.7590  139.9540  150.7570 C   0  0  0  0  0  0  0  0  0  0  0  0
  147.0430  139.8920  149.5740 O   0  0  0  0  0  0  0  0  0  0  0  0
  1  5  1  0  0  0  0
  1  4  1  0  0  0  0
  2  1  1  0  0  0  0
  3  2  2  0  0  0  0
  5  9  1  0  0  0  0
  6 11  1  0  0  0  0
  6 13  1  0  0  0  0
  7  6  2  0  0  0  0
  8  9  2  0  0  0  0
  8  7  1  0  0  0  0
  9 10  1  0  0  0  0
 10 11  2  0  0  0  0
 11 14  1  0  0  0  0
 13 12  1  0  0  0  0
 14 15  1  0  0  0  0
 16  2  1  0  0  0  0
 16 17  1  0  0  0  0
 17 18  1  0  0  0  0
 18 19  1  0  0  0  0
 19 21  1  0  0  0  0
 19 20  2  0  0  0  0
 21 22  1  0  0  0  0
 23 22  2  0  0  0  0
 24 23  1  0  0  0  0
 25 26  1  0  0  0  0
 25 24  2  0  0  0  0
 26 21  2  0  0  0  0
 27 18  1  0  0  0  0
 27 26  1  0  0  0  0
 28 27  2  0  0  0  0
M  END
>  <MODEL>
5

>  <REMARK>
 VINA RESULT:    -7.249      2.262      3.877
 INTER + INTRA:         -11.015
 INTER:                 -10.231
 INTRA:                  -0.784
 UNBOUND:                -0.799
  Name = CHEMBL1401982
  9 active torsions:
  status: ('A' for Active; 'I' for Inactive)
    1  A    between atoms: C_1  and  O_2
    2  A    between atoms: O_2  and  C_3
    3  A    between atoms: C_6  and  C_7
    4  A    between atoms: C_7  and  N_8
    5  A    between atoms: C_9  and  C_11
    6  A    between atoms: C_11  and  C_12
    7  A    between atoms: C_12  and  N_13
    8  A    between atoms: C_25  and  O_26
    9  A    between atoms: O_26  and  C_27
                            x       y       z     vdW  Elec       q    Type
                         _______ _______ _______ _____ _____    ______ ____

>  <TORSDO>
F 7

>  <SCORE>
-7.249

>  <RMSD_LB>
2.262

>  <RMSD_UB>
3.877

$$$$
CHEMBL1401982
 OpenBabel10162523373D

 28 30  0  0  0  0  0  0  0  0999 V2000
  140.6270  138.3560  152.7400 N   0  0  0  0  0  0  0  0  0  0  0  0
  141.4400  138.5480  153.8290 C   0  0  0  0  0  0  0  0  0  0  0  0
  141.1280  139.2820  154.7600 O   0  0  0  0  0  0  0  0  0  0  0  0
  140.9580  137.8370  151.9710 H   0  0  0  0  0  0  0  0  0  0  0  0
  139.2910  138.9050  152.7100 C   0  0  0  0  0  2  0  0  0  0  0  0
  136.2420  136.0330  153.7990 C   0  0  0  0  0  0  0  0  0  0  0  0
  136.5660  136.2580  152.4540 C   0  0  0  0  0  3  0  0  0  0  0  0
  137.5710  137.1640  152.1000 C   0  0  0  0  0  3  0  0  0  0  0  0
  138.2580  137.8820  153.0840 C   0  0  0  0  0  0  0  0  0  0  0  0
  137.9450  137.6480  154.4260 C   0  0  0  0  0  3  0  0  0  0  0  0
  136.9530  136.7290  154.7930 C   0  0  0  0  0  0  0  0  0  0  0  0
  133.9390  135.4560  153.5880 C   0  0  0  0  0  1  0  0  0  0  0  0
  135.2070  135.2250  154.1900 O   0  0  0  0  0  0  0  0  0  0  0  0
  136.7600  136.6670  156.1470 O   0  0  0  0  0  0  0  0  0  0  0  0
  137.6680  135.8530  156.8840 C   0  0  0  0  0  1  0  0  0  0  0  0
  142.7560  137.7950  153.7910 C   0  0  0  0  0  2  0  0  0  0  0  0
  143.8060  138.7810  153.3050 C   0  0  0  0  0  2  0  0  0  0  0  0
  145.2060  138.3820  153.2700 N   0  0  0  0  0  0  0  0  0  0  0  0
  145.9150  139.0750  154.2350 C   0  0  0  0  0  0  0  0  0  0  0  0
  145.7720  139.0620  155.4450 O   0  0  0  0  0  0  0  0  0  0  0  0
  146.7520  140.0350  153.5260 C   0  0  0  0  0  0  0  0  0  0  0  0
  147.1700  141.2800  153.9430 C   0  0  0  0  0  3  0  0  0  0  0  0
  147.6240  142.1580  152.9560 C   0  0  0  0  0  3  0  0  0  0  0  0
  147.6800  141.7620  151.6030 C   0  0  0  0  0  3  0  0  0  0  0  0
  147.2480  140.4940  151.2070 C   0  0  0  0  0  3  0  0  0  0  0  0
  146.7590  139.6670  152.1960 C   0  0  0  0  0  0  0  0  0  0  0  0
  145.8580  138.5250  152.0630 C   0  0  0  0  0  0  0  0  0  0  0  0
  145.6900  137.9040  151.0280 O   0  0  0  0  0  0  0  0  0  0  0  0
  1  2  1  0  0  0  0
  2  3  2  0  0  0  0
  4  1  1  0  0  0  0
  5  1  1  0  0  0  0
  5  9  1  0  0  0  0
  6 13  1  0  0  0  0
  6 11  1  0  0  0  0
  7  6  2  0  0  0  0
  8  7  1  0  0  0  0
  8  9  2  0  0  0  0
  9 10  1  0  0  0  0
 10 11  2  0  0  0  0
 11 14  1  0  0  0  0
 12 13  1  0  0  0  0
 14 15  1  0  0  0  0
 16  2  1  0  0  0  0
 17 16  1  0  0  0  0
 18 17  1  0  0  0  0
 18 19  1  0  0  0  0
 19 20  2  0  0  0  0
 21 22  1  0  0  0  0
 21 19  1  0  0  0  0
 23 22  2  0  0  0  0
 24 23  1  0  0  0  0
 25 24  2  0  0  0  0
 25 26  1  0  0  0  0
 26 21  2  0  0  0  0
 27 26  1  0  0  0  0
 27 18  1  0  0  0  0
 28 27  2  0  0  0  0
M  END
>  <MODEL>
6

>  <REMARK>
 VINA RESULT:    -7.123      3.112      4.999
 INTER + INTRA:         -10.837
 INTER:                 -10.127
 INTRA:                  -0.710
 UNBOUND:                -0.799
  Name = CHEMBL1401982
  9 active torsions:
  status: ('A' for Active; 'I' for Inactive)
    1  A    between atoms: C_1  and  O_2
    2  A    between atoms: O_2  and  C_3
    3  A    between atoms: C_6  and  C_7
    4  A    between atoms: C_7  and  N_8
    5  A    between atoms: C_9  and  C_11
    6  A    between atoms: C_11  and  C_12
    7  A    between atoms: C_12  and  N_13
    8  A    between atoms: C_25  and  O_26
    9  A    between atoms: O_26  and  C_27
                            x       y       z     vdW  Elec       q    Type
                         _______ _______ _______ _____ _____    ______ ____

>  <TORSDO>
F 7

>  <SCORE>
-7.123

>  <RMSD_LB>
3.112

>  <RMSD_UB>
4.999

$$$$
CHEMBL1401982
 OpenBabel10162523373D

 28 30  0  0  0  0  0  0  0  0999 V2000
  143.9730  137.3350  148.9210 N   0  0  0  0  0  0  0  0  0  0  0  0
  143.2260  136.2270  149.2310 C   0  0  0  0  0  0  0  0  0  0  0  0
  143.7340  135.1330  149.4530 O   0  0  0  0  0  0  0  0  0  0  0  0
  143.5200  138.1680  148.6540 H   0  0  0  0  0  0  0  0  0  0  0  0
  145.4160  137.2950  148.9840 C   0  0  0  0  0  2  0  0  0  0  0  0
  146.8440  139.4810  152.4350 C   0  0  0  0  0  0  0  0  0  0  0  0
  146.6330  138.0970  152.5010 C   0  0  0  0  0  3  0  0  0  0  0  0
  146.1990  137.3830  151.3800 C   0  0  0  0  0  3  0  0  0  0  0  0
  145.9450  138.0420  150.1730 C   0  0  0  0  0  0  0  0  0  0  0  0
  146.1700  139.4200  150.1020 C   0  0  0  0  0  3  0  0  0  0  0  0
  146.6220  140.1430  151.2140 C   0  0  0  0  0  0  0  0  0  0  0  0
  148.5610  140.3060  153.8670 C   0  0  0  0  0  1  0  0  0  0  0  0
  147.1810  140.2360  153.5280 O   0  0  0  0  0  0  0  0  0  0  0  0
  146.7420  141.4840  150.9650 O   0  0  0  0  0  0  0  0  0  0  0  0
  145.5530  142.2610  151.0710 C   0  0  0  0  0  1  0  0  0  0  0  0
  141.7260  136.4500  149.2680 C   0  0  0  0  0  2  0  0  0  0  0  0
  141.4750  137.8130  148.6420 C   0  0  0  0  0  2  0  0  0  0  0  0
  140.9210  138.8860  149.4570 N   0  0  0  0  0  0  0  0  0  0  0  0
  141.9450  139.6540  149.9800 C   0  0  0  0  0  0  0  0  0  0  0  0
  142.7840  140.3140  149.3920 O   0  0  0  0  0  0  0  0  0  0  0  0
  141.9990  139.3580  151.4070 C   0  0  0  0  0  0  0  0  0  0  0  0
  143.0950  139.3590  152.2420 C   0  0  0  0  0  3  0  0  0  0  0  0
  142.9690  138.6730  153.4520 C   0  0  0  0  0  3  0  0  0  0  0  0
  141.7570  138.0430  153.8060 C   0  0  0  0  0  3  0  0  0  0  0  0
  140.6610  138.0550  152.9400 C   0  0  0  0  0  3  0  0  0  0  0  0
  140.8320  138.6980  151.7310 C   0  0  0  0  0  0  0  0  0  0  0  0
  140.0870  138.5090  150.4890 C   0  0  0  0  0  0  0  0  0  0  0  0
  138.9710  138.0240  150.4280 O   0  0  0  0  0  0  0  0  0  0  0  0
  1  5  1  0  0  0  0
  1  2  1  0  0  0  0
  2 16  1  0  0  0  0
  2  3  2  0  0  0  0
  4  1  1  0  0  0  0
  5  9  1  0  0  0  0
  6  7  1  0  0  0  0
  6 13  1  0  0  0  0
  8  7  2  0  0  0  0
  9  8  1  0  0  0  0
 10  9  2  0  0  0  0
 10 11  1  0  0  0  0
 11  6  2  0  0  0  0
 13 12  1  0  0  0  0
 14 15  1  0  0  0  0
 14 11  1  0  0  0  0
 17 16  1  0  0  0  0
 17 18  1  0  0  0  0
 18 19  1  0  0  0  0
 18 27  1  0  0  0  0
 19 21  1  0  0  0  0
 20 19  2  0  0  0  0
 21 26  2  0  0  0  0
 21 22  1  0  0  0  0
 22 23  2  0  0  0  0
 23 24  1  0  0  0  0
 25 24  2  0  0  0  0
 26 25  1  0  0  0  0
 27 26  1  0  0  0  0
 28 27  2  0  0  0  0
M  END
>  <MODEL>
7

>  <REMARK>
 VINA RESULT:    -6.938      2.357      6.508
 INTER + INTRA:         -10.576
 INTER:                  -8.390
 INTRA:                  -2.186
 UNBOUND:                -0.799
  Name = CHEMBL1401982
  9 active torsions:
  status: ('A' for Active; 'I' for Inactive)
    1  A    between atoms: C_1  and  O_2
    2  A    between atoms: O_2  and  C_3
    3  A    between atoms: C_6  and  C_7
    4  A    between atoms: C_7  and  N_8
    5  A    between atoms: C_9  and  C_11
    6  A    between atoms: C_11  and  C_12
    7  A    between atoms: C_12  and  N_13
    8  A    between atoms: C_25  and  O_26
    9  A    between atoms: O_26  and  C_27
                            x       y       z     vdW  Elec       q    Type
                         _______ _______ _______ _____ _____    ______ ____

>  <TORSDO>
F 7

>  <SCORE>
-6.938

>  <RMSD_LB>
2.357

>  <RMSD_UB>
6.508

$$$$
CHEMBL1401982
 OpenBabel10162523373D

 28 30  0  0  0  0  0  0  0  0999 V2000
  146.3260  140.7970  150.7450 N   0  0  0  0  0  0  0  0  0  0  0  0
  146.0450  142.0730  151.1640 C   0  0  0  0  0  0  0  0  0  0  0  0
  145.9230  143.0100  150.3810 O   0  0  0  0  0  0  0  0  0  0  0  0
  146.5120  140.0960  151.4110 H   0  0  0  0  0  0  0  0  0  0  0  0
  146.3490  140.4700  149.3380 C   0  0  0  0  0  2  0  0  0  0  0  0
  144.0420  136.9310  148.3960 C   0  0  0  0  0  0  0  0  0  0  0  0
  145.3850  137.0350  148.0070 C   0  0  0  0  0  3  0  0  0  0  0  0
  146.1410  138.1650  148.3350 C   0  0  0  0  0  3  0  0  0  0  0  0
  145.5640  139.2260  149.0400 C   0  0  0  0  0  0  0  0  0  0  0  0
  144.2290  139.1160  149.4410 C   0  0  0  0  0  3  0  0  0  0  0  0
  143.4670  137.9820  149.1340 C   0  0  0  0  0  0  0  0  0  0  0  0
  143.3380  134.6870  148.7790 C   0  0  0  0  0  1  0  0  0  0  0  0
  143.2380  135.8870  148.0220 O   0  0  0  0  0  0  0  0  0  0  0  0
  142.1730  138.0750  149.5720 O   0  0  0  0  0  0  0  0  0  0  0  0
  141.8960  137.5370  150.8610 C   0  0  0  0  0  1  0  0  0  0  0  0
  145.9070  142.2430  152.6650 C   0  0  0  0  0  2  0  0  0  0  0  0
  147.1550  141.6360  153.2860 C   0  0  0  0  0  2  0  0  0  0  0  0
  147.0260  140.5140  154.2060 N   0  0  0  0  0  0  0  0  0  0  0  0
  148.0400  139.6010  153.9750 C   0  0  0  0  0  0  0  0  0  0  0  0
  149.2450  139.7550  154.0740 O   0  0  0  0  0  0  0  0  0  0  0  0
  147.4180  138.4370  153.3540 C   0  0  0  0  0  0  0  0  0  0  0  0
  147.9610  137.5610  152.4410 C   0  0  0  0  0  3  0  0  0  0  0  0
  147.0670  136.7780  151.7070 C   0  0  0  0  0  3  0  0  0  0  0  0
  145.6750  136.8650  151.9290 C   0  0  0  0  0  3  0  0  0  0  0  0
  145.1510  137.7640  152.8600 C   0  0  0  0  0  3  0  0  0  0  0  0
  146.0550  138.5590  153.5330 C   0  0  0  0  0  0  0  0  0  0  0  0
  145.8220  139.8410  154.1930 C   0  0  0  0  0  0  0  0  0  0  0  0
  144.7290  140.2290  154.5670 O   0  0  0  0  0  0  0  0  0  0  0  0
  1  2  1  0  0  0  0
  1  4  1  0  0  0  0
  2 16  1  0  0  0  0
  3  2  2  0  0  0  0
  5  1  1  0  0  0  0
  6 11  1  0  0  0  0
  7  8  1  0  0  0  0
  7  6  2  0  0  0  0
  8  9  2  0  0  0  0
  9  5  1  0  0  0  0
  9 10  1  0  0  0  0
 11 10  2  0  0  0  0
 11 14  1  0  0  0  0
 13  6  1  0  0  0  0
 13 12  1  0  0  0  0
 14 15  1  0  0  0  0
 16 17  1  0  0  0  0
 17 18  1  0  0  0  0
 19 20  2  0  0  0  0
 19 18  1  0  0  0  0
 21 26  1  0  0  0  0
 21 19  1  0  0  0  0
 22 21  2  0  0  0  0
 23 24  2  0  0  0  0
 23 22  1  0  0  0  0
 24 25  1  0  0  0  0
 25 26  2  0  0  0  0
 26 27  1  0  0  0  0
 27 18  1  0  0  0  0
 27 28  2  0  0  0  0
M  END
>  <MODEL>
8

>  <REMARK>
 VINA RESULT:    -6.933      2.228      4.515
 INTER + INTRA:         -10.569
 INTER:                  -8.458
 INTRA:                  -2.111
 UNBOUND:                -0.799
  Name = CHEMBL1401982
  9 active torsions:
  status: ('A' for Active; 'I' for Inactive)
    1  A    between atoms: C_1  and  O_2
    2  A    between atoms: O_2  and  C_3
    3  A    between atoms: C_6  and  C_7
    4  A    between atoms: C_7  and  N_8
    5  A    between atoms: C_9  and  C_11
    6  A    between atoms: C_11  and  C_12
    7  A    between atoms: C_12  and  N_13
    8  A    between atoms: C_25  and  O_26
    9  A    between atoms: O_26  and  C_27
                            x       y       z     vdW  Elec       q    Type
                         _______ _______ _______ _____ _____    ______ ____

>  <TORSDO>
F 7

>  <SCORE>
-6.933

>  <RMSD_LB>
2.228

>  <RMSD_UB>
4.515

$$$$
CHEMBL1401982
 OpenBabel10162523373D

 28 30  0  0  0  0  0  0  0  0999 V2000
  139.4320  137.3650  150.9470 N   0  0  0  0  0  0  0  0  0  0  0  0
  140.1410  138.3580  151.5740 C   0  0  0  0  0  0  0  0  0  0  0  0
  139.9810  139.5450  151.3110 O   0  0  0  0  0  0  0  0  0  0  0  0
  139.6610  136.4220  151.1170 H   0  0  0  0  0  0  0  0  0  0  0  0
  138.3510  137.6860  150.0430 C   0  0  0  0  0  2  0  0  0  0  0  0
  134.6890  135.6720  151.1660 C   0  0  0  0  0  0  0  0  0  0  0  0
  135.6820  135.9370  152.1190 C   0  0  0  0  0  3  0  0  0  0  0  0
  136.8540  136.6140  151.7660 C   0  0  0  0  0  3  0  0  0  0  0  0
  137.0680  137.0190  150.4450 C   0  0  0  0  0  0  0  0  0  0  0  0
  136.0720  136.7690  149.4960 C   0  0  0  0  0  3  0  0  0  0  0  0
  134.8860  136.1080  149.8430 C   0  0  0  0  0  0  0  0  0  0  0  0
  133.6420  133.5320  151.2260 C   0  0  0  0  0  1  0  0  0  0  0  0
  133.5680  134.9360  151.4440 O   0  0  0  0  0  0  0  0  0  0  0  0
  134.0520  135.9160  148.7750 O   0  0  0  0  0  0  0  0  0  0  0  0
  133.7000  137.0740  148.0240 C   0  0  0  0  0  1  0  0  0  0  0  0
  141.1450  137.8800  152.6060 C   0  0  0  0  0  2  0  0  0  0  0  0
  142.2160  138.9550  152.6990 C   0  0  0  0  0  2  0  0  0  0  0  0
  143.4440  138.8130  151.9290 N   0  0  0  0  0  0  0  0  0  0  0  0
  144.5130  138.6180  152.7840 C   0  0  0  0  0  0  0  0  0  0  0  0
  144.7080  137.7060  153.5690 O   0  0  0  0  0  0  0  0  0  0  0  0
  145.2990  139.8460  152.7550 C   0  0  0  0  0  0  0  0  0  0  0  0
  146.0550  140.4040  153.7620 C   0  0  0  0  0  3  0  0  0  0  0  0
  146.3870  141.7550  153.6290 C   0  0  0  0  0  3  0  0  0  0  0  0
  145.9900  142.4910  152.4920 C   0  0  0  0  0  3  0  0  0  0  0  0
  145.2220  141.9010  151.4860 C   0  0  0  0  0  3  0  0  0  0  0  0
  144.8680  140.5800  151.6690 C   0  0  0  0  0  0  0  0  0  0  0  0
  143.7560  139.8470  151.0700 C   0  0  0  0  0  0  0  0  0  0  0  0
  143.1900  140.1810  150.0430 O   0  0  0  0  0  0  0  0  0  0  0  0
  1  4  1  0  0  0  0
  1  2  1  0  0  0  0
  2 16  1  0  0  0  0
  3  2  2  0  0  0  0
  5  9  1  0  0  0  0
  5  1  1  0  0  0  0
  6 13  1  0  0  0  0
  6  7  1  0  0  0  0
  8  7  2  0  0  0  0
  9  8  1  0  0  0  0
 10 11  1  0  0  0  0
 10  9  2  0  0  0  0
 11  6  2  0  0  0  0
 12 13  1  0  0  0  0
 14 11  1  0  0  0  0
 15 14  1  0  0  0  0
 16 17  1  0  0  0  0
 18 17  1  0  0  0  0
 18 19  1  0  0  0  0
 19 20  2  0  0  0  0
 21 19  1  0  0  0  0
 21 22  1  0  0  0  0
 23 22  2  0  0  0  0
 24 23  1  0  0  0  0
 25 26  1  0  0  0  0
 25 24  2  0  0  0  0
 26 21  2  0  0  0  0
 27 26  1  0  0  0  0
 27 18  1  0  0  0  0
 28 27  2  0  0  0  0
M  END
>  <MODEL>
9

>  <REMARK>
 VINA RESULT:    -6.928      4.118      5.788
 INTER + INTRA:         -10.561
 INTER:                  -9.763
 INTRA:                  -0.799
 UNBOUND:                -0.799
  Name = CHEMBL1401982
  9 active torsions:
  status: ('A' for Active; 'I' for Inactive)
    1  A    between atoms: C_1  and  O_2
    2  A    between atoms: O_2  and  C_3
    3  A    between atoms: C_6  and  C_7
    4  A    between atoms: C_7  and  N_8
    5  A    between atoms: C_9  and  C_11
    6  A    between atoms: C_11  and  C_12
    7  A    between atoms: C_12  and  N_13
    8  A    between atoms: C_25  and  O_26
    9  A    between atoms: O_26  and  C_27
                            x       y       z     vdW  Elec       q    Type
                         _______ _______ _______ _____ _____    ______ ____

>  <TORSDO>
F 7

>  <SCORE>
-6.928

>  <RMSD_LB>
4.118

>  <RMSD_UB>
5.788

$$$$
