CHEMBL145980
 OpenBabel10172500543D

 27 29  0  0  0  0  0  0  0  0999 V2000
  133.1060  134.4860  152.3300 N   0  0  0  0  0  0  0  0  0  0  0  0
  133.8960  135.1270  153.2570 C   0  0  0  0  0  0  0  0  0  0  0  0
  134.2150  136.3040  153.1780 O   0  0  0  0  0  0  0  0  0  0  0  0
  132.8430  133.5490  152.4720 H   0  0  0  0  0  0  0  0  0  0  0  0
  134.3450  134.2160  154.4350 C   0  0  0  0  0  0  0  0  0  0  0  0
  134.2510  132.9990  154.2550 O   0  0  0  0  0  0  0  0  0  0  0  0
  134.8460  134.7980  155.6780 C   0  0  0  0  0  0  0  0  0  0  0  0
  134.2790  134.6350  156.9280 C   0  0  0  0  0  3  0  0  0  0  0  0
  135.0570  135.2730  157.8490 N   0  0  0  0  0  0  0  0  0  0  0  0
  136.0970  135.9140  157.2330 C   0  0  0  0  0  0  0  0  0  0  0  0
  137.1240  136.6910  157.7660 C   0  0  0  0  0  3  0  0  0  0  0  0
  138.0510  137.2470  156.8810 C   0  0  0  0  0  3  0  0  0  0  0  0
  137.9580  137.0250  155.5110 C   0  0  0  0  0  3  0  0  0  0  0  0
  136.9370  136.2240  154.9870 C   0  0  0  0  0  3  0  0  0  0  0  0
  135.9850  135.6490  155.8570 C   0  0  0  0  0  0  0  0  0  0  0  0
  134.8930  135.2710  158.8190 H   0  0  0  0  0  0  0  0  0  0  0  0
  132.6620  135.1880  151.1470 C   0  0  0  0  0  2  0  0  0  0  0  0
  133.6610  134.7660  147.4620 C   0  0  0  0  0  0  0  0  0  0  0  0
  133.2280  135.3390  148.6670 C   0  0  0  0  0  3  0  0  0  0  0  0
  133.1590  134.5860  149.8550 C   0  0  0  0  0  0  0  0  0  0  0  0
  133.5070  133.2320  149.8040 C   0  0  0  0  0  3  0  0  0  0  0  0
  133.9350  132.6420  148.6130 C   0  0  0  0  0  3  0  0  0  0  0  0
  134.0120  133.4120  147.4490 C   0  0  0  0  0  0  0  0  0  0  0  0
  134.9620  136.1870  146.0660 C   0  0  0  0  0  1  0  0  0  0  0  0
  133.7680  135.4420  146.2740 O   0  0  0  0  0  0  0  0  0  0  0  0
  134.4340  132.8340  146.2800 O   0  0  0  0  0  0  0  0  0  0  0  0
  134.2520  131.9310  146.1110 H   0  0  0  0  0  0  0  0  0  0  0  0
  1  4  1  0  0  0  0
  1  2  1  0  0  0  0
  2  5  1  0  0  0  0
  3  2  2  0  0  0  0
  5  7  1  0  0  0  0
  6  5  2  0  0  0  0
  7 15  1  0  0  0  0
  7  8  2  0  0  0  0
  8  9  1  0  0  0  0
  9 16  1  0  0  0  0
 10 11  1  0  0  0  0
 10  9  1  0  0  0  0
 12 11  2  0  0  0  0
 13 12  1  0  0  0  0
 14 13  2  0  0  0  0
 14 15  1  0  0  0  0
 15 10  2  0  0  0  0
 17  1  1  0  0  0  0
 18 19  1  0  0  0  0
 19 20  2  0  0  0  0
 20 17  1  0  0  0  0
 21 20  1  0  0  0  0
 22 21  2  0  0  0  0
 23 18  2  0  0  0  0
 23 22  1  0  0  0  0
 24 25  1  0  0  0  0
 25 18  1  0  0  0  0
 26 23  1  0  0  0  0
 27 26  1  0  0  0  0
M  END
>  <MODEL>
1

>  <REMARK>
 VINA RESULT:    -8.318      0.000      0.000
 INTER + INTRA:         -11.252
 INTER:                 -10.927
 INTRA:                  -0.326
 UNBOUND:                -0.260
  Name = CHEMBL145980
  7 active torsions:
  status: ('A' for Active; 'I' for Inactive)
    1  A    between atoms: C_1  and  O_2
    2  A    between atoms: O_2  and  C_3
    3  A    between atoms: C_5  and  C_6
    4  A    between atoms: C_6  and  N_7
    5  A    between atoms: C_8  and  C_10
    6  A    between atoms: C_10  and  C_12
    7  A    between atoms: C_23  and  O_24
                            x       y       z     vdW  Elec       q    Type
                         _______ _______ _______ _____ _____    ______ ____

>  <TORSDO>
F 6

>  <SCORE>
-8.318

>  <RMSD_LB>
0.000

>  <RMSD_UB>
0.000

$$$$
CHEMBL145980
 OpenBabel10172500543D

 27 29  0  0  0  0  0  0  0  0999 V2000
  144.6380  138.0350  152.2950 N   0  0  0  0  0  0  0  0  0  0  0  0
  145.1910  137.7450  153.5220 C   0  0  0  0  0  0  0  0  0  0  0  0
  145.1020  136.6530  154.0640 O   0  0  0  0  0  0  0  0  0  0  0  0
  144.7820  138.9190  151.8880 H   0  0  0  0  0  0  0  0  0  0  0  0
  145.9570  138.9370  154.1620 C   0  0  0  0  0  0  0  0  0  0  0  0
  145.6980  139.1860  155.3420 O   0  0  0  0  0  0  0  0  0  0  0  0
  146.9250  139.7050  153.3830 C   0  0  0  0  0  0  0  0  0  0  0  0
  148.2980  139.5570  153.4340 C   0  0  0  0  0  3  0  0  0  0  0  0
  148.8650  140.3990  152.5240 N   0  0  0  0  0  0  0  0  0  0  0  0
  147.9040  141.1560  151.9120 C   0  0  0  0  0  0  0  0  0  0  0  0
  148.0160  142.1460  150.9360 C   0  0  0  0  0  3  0  0  0  0  0  0
  146.8470  142.7740  150.5030 C   0  0  0  0  0  3  0  0  0  0  0  0
  145.6060  142.4190  151.0240 C   0  0  0  0  0  3  0  0  0  0  0  0
  145.5000  141.4100  151.9860 C   0  0  0  0  0  3  0  0  0  0  0  0
  146.6660  140.7560  152.4420 C   0  0  0  0  0  0  0  0  0  0  0  0
  149.8290  140.4550  152.3350 H   0  0  0  0  0  0  0  0  0  0  0  0
  143.8440  137.0440  151.6050 C   0  0  0  0  0  2  0  0  0  0  0  0
  140.1440  137.3980  150.6340 C   0  0  0  0  0  0  0  0  0  0  0  0
  141.5210  137.1400  150.5620 C   0  0  0  0  0  3  0  0  0  0  0  0
  142.3560  137.2870  151.6860 C   0  0  0  0  0  0  0  0  0  0  0  0
  141.7840  137.7300  152.8830 C   0  0  0  0  0  3  0  0  0  0  0  0
  140.4170  137.9970  152.9740 C   0  0  0  0  0  3  0  0  0  0  0  0
  139.6040  137.8270  151.8500 C   0  0  0  0  0  0  0  0  0  0  0  0
  138.9790  135.9320  149.1650 C   0  0  0  0  0  1  0  0  0  0  0  0
  139.2700  137.2600  149.5860 O   0  0  0  0  0  0  0  0  0  0  0  0
  138.2610  138.0880  151.9400 O   0  0  0  0  0  0  0  0  0  0  0  0
  137.8660  138.2310  152.7770 H   0  0  0  0  0  0  0  0  0  0  0  0
  1  2  1  0  0  0  0
  2  3  2  0  0  0  0
  2  5  1  0  0  0  0
  4  1  1  0  0  0  0
  5  6  2  0  0  0  0
  7  8  2  0  0  0  0
  7  5  1  0  0  0  0
  9  8  1  0  0  0  0
 10 15  1  0  0  0  0
 10  9  1  0  0  0  0
 11 10  2  0  0  0  0
 12 11  1  0  0  0  0
 12 13  2  0  0  0  0
 13 14  1  0  0  0  0
 14 15  2  0  0  0  0
 15  7  1  0  0  0  0
 16  9  1  0  0  0  0
 17 20  1  0  0  0  0
 17  1  1  0  0  0  0
 18 23  1  0  0  0  0
 19 18  2  0  0  0  0
 19 20  1  0  0  0  0
 20 21  2  0  0  0  0
 21 22  1  0  0  0  0
 23 26  1  0  0  0  0
 23 22  2  0  0  0  0
 24 25  1  0  0  0  0
 25 18  1  0  0  0  0
 26 27  1  0  0  0  0
M  END
>  <MODEL>
2

>  <REMARK>
 VINA RESULT:    -7.642      9.069     11.272
 INTER + INTRA:         -10.359
 INTER:                  -9.849
 INTRA:                  -0.510
 UNBOUND:                -0.260
  Name = CHEMBL145980
  7 active torsions:
  status: ('A' for Active; 'I' for Inactive)
    1  A    between atoms: C_1  and  O_2
    2  A    between atoms: O_2  and  C_3
    3  A    between atoms: C_5  and  C_6
    4  A    between atoms: C_6  and  N_7
    5  A    between atoms: C_8  and  C_10
    6  A    between atoms: C_10  and  C_12
    7  A    between atoms: C_23  and  O_24
                            x       y       z     vdW  Elec       q    Type
                         _______ _______ _______ _____ _____    ______ ____

>  <TORSDO>
F 6

>  <SCORE>
-7.642

>  <RMSD_LB>
9.069

>  <RMSD_UB>
11.272

$$$$
CHEMBL145980
 OpenBabel10172500543D

 27 29  0  0  0  0  0  0  0  0999 V2000
  145.0720  138.2740  149.6650 N   0  0  0  0  0  0  0  0  0  0  0  0
  145.1110  136.9450  150.0240 C   0  0  0  0  0  0  0  0  0  0  0  0
  146.0880  136.4070  150.5230 O   0  0  0  0  0  0  0  0  0  0  0  0
  144.2400  138.6620  149.3110 H   0  0  0  0  0  0  0  0  0  0  0  0
  143.7860  136.1810  149.7450 C   0  0  0  0  0  0  0  0  0  0  0  0
  143.8710  135.1730  149.0400 O   0  0  0  0  0  0  0  0  0  0  0  0
  142.5210  136.6560  150.3010 C   0  0  0  0  0  0  0  0  0  0  0  0
  141.3140  136.7030  149.6300 C   0  0  0  0  0  3  0  0  0  0  0  0
  140.3500  137.1440  150.4880 N   0  0  0  0  0  0  0  0  0  0  0  0
  140.9000  137.4560  151.7020 C   0  0  0  0  0  0  0  0  0  0  0  0
  140.3070  137.9480  152.8630 C   0  0  0  0  0  3  0  0  0  0  0  0
  141.1310  138.1970  153.9640 C   0  0  0  0  0  3  0  0  0  0  0  0
  142.4990  137.9530  153.9060 C   0  0  0  0  0  3  0  0  0  0  0  0
  143.0820  137.4370  152.7430 C   0  0  0  0  0  3  0  0  0  0  0  0
  142.2740  137.1760  151.6150 C   0  0  0  0  0  0  0  0  0  0  0  0
  139.3950  137.2260  150.2650 H   0  0  0  0  0  0  0  0  0  0  0  0
  146.2500  139.0980  149.8080 C   0  0  0  0  0  2  0  0  0  0  0  0
  146.4910  140.3010  153.4480 C   0  0  0  0  0  0  0  0  0  0  0  0
  146.5390  139.4820  152.3100 C   0  0  0  0  0  3  0  0  0  0  0  0
  146.2330  139.9830  151.0310 C   0  0  0  0  0  0  0  0  0  0  0  0
  145.8470  141.3230  150.9190 C   0  0  0  0  0  3  0  0  0  0  0  0
  145.7870  142.1530  152.0400 C   0  0  0  0  0  3  0  0  0  0  0  0
  146.1130  141.6390  153.2980 C   0  0  0  0  0  0  0  0  0  0  0  0
  147.9980  139.1480  154.8850 C   0  0  0  0  0  1  0  0  0  0  0  0
  146.7920  139.8850  154.7200 O   0  0  0  0  0  0  0  0  0  0  0  0
  146.0570  142.4540  154.3990 O   0  0  0  0  0  0  0  0  0  0  0  0
  146.7040  143.1190  154.5230 H   0  0  0  0  0  0  0  0  0  0  0  0
  1 17  1  0  0  0  0
  1  2  1  0  0  0  0
  2  3  2  0  0  0  0
  4  1  1  0  0  0  0
  5  2  1  0  0  0  0
  5  7  1  0  0  0  0
  6  5  2  0  0  0  0
  7 15  1  0  0  0  0
  8  7  2  0  0  0  0
  8  9  1  0  0  0  0
  9 10  1  0  0  0  0
 10 11  1  0  0  0  0
 11 12  2  0  0  0  0
 13 12  1  0  0  0  0
 14 13  2  0  0  0  0
 15 10  2  0  0  0  0
 15 14  1  0  0  0  0
 16  9  1  0  0  0  0
 17 20  1  0  0  0  0
 18 25  1  0  0  0  0
 19 18  2  0  0  0  0
 20 19  1  0  0  0  0
 21 20  2  0  0  0  0
 21 22  1  0  0  0  0
 22 23  2  0  0  0  0
 23 18  1  0  0  0  0
 23 26  1  0  0  0  0
 25 24  1  0  0  0  0
 26 27  1  0  0  0  0
M  END
>  <MODEL>
3

>  <REMARK>
 VINA RESULT:    -7.631      9.121     12.208
 INTER + INTRA:         -10.345
 INTER:                  -9.414
 INTRA:                  -0.931
 UNBOUND:                -0.260
  Name = CHEMBL145980
  7 active torsions:
  status: ('A' for Active; 'I' for Inactive)
    1  A    between atoms: C_1  and  O_2
    2  A    between atoms: O_2  and  C_3
    3  A    between atoms: C_5  and  C_6
    4  A    between atoms: C_6  and  N_7
    5  A    between atoms: C_8  and  C_10
    6  A    between atoms: C_10  and  C_12
    7  A    between atoms: C_23  and  O_24
                            x       y       z     vdW  Elec       q    Type
                         _______ _______ _______ _____ _____    ______ ____

>  <TORSDO>
F 6

>  <SCORE>
-7.631

>  <RMSD_LB>
9.121

>  <RMSD_UB>
12.208

$$$$
CHEMBL145980
 OpenBabel10172500543D

 27 29  0  0  0  0  0  0  0  0999 V2000
  145.3910  138.6330  150.4080 N   0  0  0  0  0  0  0  0  0  0  0  0
  145.2540  137.2800  150.6200 C   0  0  0  0  0  0  0  0  0  0  0  0
  146.1990  136.5130  150.7300 O   0  0  0  0  0  0  0  0  0  0  0  0
  144.5930  139.2080  150.3740 H   0  0  0  0  0  0  0  0  0  0  0  0
  143.7760  136.8060  150.7170 C   0  0  0  0  0  0  0  0  0  0  0  0
  143.3740  136.0730  149.8120 O   0  0  0  0  0  0  0  0  0  0  0  0
  142.9320  137.2250  151.8340 C   0  0  0  0  0  0  0  0  0  0  0  0
  143.3710  137.5010  153.1150 C   0  0  0  0  0  3  0  0  0  0  0  0
  142.3100  137.9200  153.8620 N   0  0  0  0  0  0  0  0  0  0  0  0
  141.1580  137.8680  153.1260 C   0  0  0  0  0  0  0  0  0  0  0  0
  139.8460  138.1860  153.4740 C   0  0  0  0  0  3  0  0  0  0  0  0
  138.8530  138.0140  152.5070 C   0  0  0  0  0  3  0  0  0  0  0  0
  139.1630  137.5480  151.2340 C   0  0  0  0  0  3  0  0  0  0  0  0
  140.4860  137.2530  150.8860 C   0  0  0  0  0  3  0  0  0  0  0  0
  141.5110  137.4170  151.8430 C   0  0  0  0  0  0  0  0  0  0  0  0
  142.3660  138.2180  154.7990 H   0  0  0  0  0  0  0  0  0  0  0  0
  146.7030  139.2120  150.2350 C   0  0  0  0  0  2  0  0  0  0  0  0
  147.9650  139.8550  153.8050 C   0  0  0  0  0  0  0  0  0  0  0  0
  147.5030  139.2000  152.6540 C   0  0  0  0  0  3  0  0  0  0  0  0
  147.2340  139.9060  151.4660 C   0  0  0  0  0  0  0  0  0  0  0  0
  147.4110  141.2930  151.4640 C   0  0  0  0  0  3  0  0  0  0  0  0
  147.8650  141.9640  152.6010 C   0  0  0  0  0  3  0  0  0  0  0  0
  148.1430  141.2420  153.7640 C   0  0  0  0  0  0  0  0  0  0  0  0
  148.0590  137.8230  155.0410 C   0  0  0  0  0  1  0  0  0  0  0  0
  148.2630  139.2300  154.9900 O   0  0  0  0  0  0  0  0  0  0  0  0
  148.5910  141.9000  154.8800 O   0  0  0  0  0  0  0  0  0  0  0  0
  149.3340  141.5750  155.3500 H   0  0  0  0  0  0  0  0  0  0  0  0
  1  2  1  0  0  0  0
  2  5  1  0  0  0  0
  2  3  2  0  0  0  0
  4  1  1  0  0  0  0
  5  7  1  0  0  0  0
  6  5  2  0  0  0  0
  7 15  1  0  0  0  0
  7  8  2  0  0  0  0
  8  9  1  0  0  0  0
  9 16  1  0  0  0  0
 10 11  1  0  0  0  0
 10  9  1  0  0  0  0
 12 11  2  0  0  0  0
 13 12  1  0  0  0  0
 14 13  2  0  0  0  0
 14 15  1  0  0  0  0
 15 10  2  0  0  0  0
 17  1  1  0  0  0  0
 17 20  1  0  0  0  0
 18 25  1  0  0  0  0
 19 18  2  0  0  0  0
 20 19  1  0  0  0  0
 21 20  2  0  0  0  0
 21 22  1  0  0  0  0
 22 23  2  0  0  0  0
 23 18  1  0  0  0  0
 23 26  1  0  0  0  0
 25 24  1  0  0  0  0
 26 27  1  0  0  0  0
M  END
>  <MODEL>
4

>  <REMARK>
 VINA RESULT:    -7.583      9.526     12.690
 INTER + INTRA:         -10.281
 INTER:                  -9.681
 INTRA:                  -0.601
 UNBOUND:                -0.260
  Name = CHEMBL145980
  7 active torsions:
  status: ('A' for Active; 'I' for Inactive)
    1  A    between atoms: C_1  and  O_2
    2  A    between atoms: O_2  and  C_3
    3  A    between atoms: C_5  and  C_6
    4  A    between atoms: C_6  and  N_7
    5  A    between atoms: C_8  and  C_10
    6  A    between atoms: C_10  and  C_12
    7  A    between atoms: C_23  and  O_24
                            x       y       z     vdW  Elec       q    Type
                         _______ _______ _______ _____ _____    ______ ____

>  <TORSDO>
F 6

>  <SCORE>
-7.583

>  <RMSD_LB>
9.526

>  <RMSD_UB>
12.690

$$$$
CHEMBL145980
 OpenBabel10172500543D

 27 29  0  0  0  0  0  0  0  0999 V2000
  137.8590  137.1510  153.8140 N   0  0  0  0  0  0  0  0  0  0  0  0
  138.3510  138.3900  154.1590 C   0  0  0  0  0  0  0  0  0  0  0  0
  137.9280  139.0500  155.0960 O   0  0  0  0  0  0  0  0  0  0  0  0
  138.2720  136.6460  153.0780 H   0  0  0  0  0  0  0  0  0  0  0  0
  139.5130  138.8790  153.2480 C   0  0  0  0  0  0  0  0  0  0  0  0
  139.1910  139.4800  152.2210 O   0  0  0  0  0  0  0  0  0  0  0  0
  140.9050  138.6230  153.6140 C   0  0  0  0  0  0  0  0  0  0  0  0
  141.4920  138.9520  154.8210 C   0  0  0  0  0  3  0  0  0  0  0  0
  142.7800  138.5020  154.8200 N   0  0  0  0  0  0  0  0  0  0  0  0
  143.0860  137.9370  153.6110 C   0  0  0  0  0  0  0  0  0  0  0  0
  144.2710  137.3640  153.1550 C   0  0  0  0  0  3  0  0  0  0  0  0
  144.3020  136.8770  151.8460 C   0  0  0  0  0  3  0  0  0  0  0  0
  143.1820  136.9540  151.0260 C   0  0  0  0  0  3  0  0  0  0  0  0
  141.9890  137.5110  151.5000 C   0  0  0  0  0  3  0  0  0  0  0  0
  141.9280  138.0110  152.8190 C   0  0  0  0  0  0  0  0  0  0  0  0
  143.4010  138.5740  155.5800 H   0  0  0  0  0  0  0  0  0  0  0  0
  136.7370  136.5920  154.5320 C   0  0  0  0  0  2  0  0  0  0  0  0
  135.2940  134.6350  151.5580 C   0  0  0  0  0  0  0  0  0  0  0  0
  136.1050  135.4830  152.3260 C   0  0  0  0  0  3  0  0  0  0  0  0
  135.8890  135.6540  153.7070 C   0  0  0  0  0  0  0  0  0  0  0  0
  134.8180  134.9770  154.2990 C   0  0  0  0  0  3  0  0  0  0  0  0
  133.9950  134.1330  153.5510 C   0  0  0  0  0  3  0  0  0  0  0  0
  134.2390  133.9630  152.1850 C   0  0  0  0  0  0  0  0  0  0  0  0
  134.9700  135.4110  149.3320 C   0  0  0  0  0  1  0  0  0  0  0  0
  135.4570  134.4080  150.2150 O   0  0  0  0  0  0  0  0  0  0  0  0
  133.4340  133.1330  151.4510 O   0  0  0  0  0  0  0  0  0  0  0  0
  133.4740  133.1480  150.5150 H   0  0  0  0  0  0  0  0  0  0  0  0
  1  2  1  0  0  0  0
  1 17  1  0  0  0  0
  2  3  2  0  0  0  0
  4  1  1  0  0  0  0
  5  7  1  0  0  0  0
  5  2  1  0  0  0  0
  6  5  2  0  0  0  0
  7  8  2  0  0  0  0
  9  8  1  0  0  0  0
  9 16  1  0  0  0  0
 10  9  1  0  0  0  0
 11 10  1  0  0  0  0
 12 11  2  0  0  0  0
 13 14  2  0  0  0  0
 13 12  1  0  0  0  0
 14 15  1  0  0  0  0
 15 10  2  0  0  0  0
 15  7  1  0  0  0  0
 18 23  2  0  0  0  0
 18 19  1  0  0  0  0
 19 20  2  0  0  0  0
 20 21  1  0  0  0  0
 20 17  1  0  0  0  0
 22 21  2  0  0  0  0
 23 22  1  0  0  0  0
 24 25  1  0  0  0  0
 25 18  1  0  0  0  0
 26 23  1  0  0  0  0
 27 26  1  0  0  0  0
M  END
>  <MODEL>
5

>  <REMARK>
 VINA RESULT:    -7.428      4.531      6.411
 INTER + INTRA:         -10.077
 INTER:                  -9.516
 INTRA:                  -0.561
 UNBOUND:                -0.260
  Name = CHEMBL145980
  7 active torsions:
  status: ('A' for Active; 'I' for Inactive)
    1  A    between atoms: C_1  and  O_2
    2  A    between atoms: O_2  and  C_3
    3  A    between atoms: C_5  and  C_6
    4  A    between atoms: C_6  and  N_7
    5  A    between atoms: C_8  and  C_10
    6  A    between atoms: C_10  and  C_12
    7  A    between atoms: C_23  and  O_24
                            x       y       z     vdW  Elec       q    Type
                         _______ _______ _______ _____ _____    ______ ____

>  <TORSDO>
F 6

>  <SCORE>
-7.428

>  <RMSD_LB>
4.531

>  <RMSD_UB>
6.411

$$$$
CHEMBL145980
 OpenBabel10172500543D

 27 29  0  0  0  0  0  0  0  0999 V2000
  136.0240  135.2800  152.7270 N   0  0  0  0  0  0  0  0  0  0  0  0
  135.2800  135.7750  151.6800 C   0  0  0  0  0  0  0  0  0  0  0  0
  134.1300  136.1740  151.7960 O   0  0  0  0  0  0  0  0  0  0  0  0
  136.9620  135.0180  152.5820 H   0  0  0  0  0  0  0  0  0  0  0  0
  136.0400  135.7940  150.3240 C   0  0  0  0  0  0  0  0  0  0  0  0
  136.1840  134.7070  149.7600 O   0  0  0  0  0  0  0  0  0  0  0  0
  136.5470  137.0480  149.7720 C   0  0  0  0  0  0  0  0  0  0  0  0
  136.1090  137.6500  148.6080 C   0  0  0  0  0  3  0  0  0  0  0  0
  136.7700  138.8330  148.4490 N   0  0  0  0  0  0  0  0  0  0  0  0
  137.6890  139.0030  149.4490 C   0  0  0  0  0  0  0  0  0  0  0  0
  138.5880  140.0420  149.6840 C   0  0  0  0  0  3  0  0  0  0  0  0
  139.4340  139.9370  150.7900 C   0  0  0  0  0  3  0  0  0  0  0  0
  139.3770  138.8340  151.6360 C   0  0  0  0  0  3  0  0  0  0  0  0
  138.4560  137.8070  151.4040 C   0  0  0  0  0  3  0  0  0  0  0  0
  137.5870  137.8860  150.2940 C   0  0  0  0  0  0  0  0  0  0  0  0
  136.6080  139.4730  147.7190 H   0  0  0  0  0  0  0  0  0  0  0  0
  135.4320  135.1440  154.0380 C   0  0  0  0  0  2  0  0  0  0  0  0
  136.6500  136.3280  157.4830 C   0  0  0  0  0  0  0  0  0  0  0  0
  136.0030  135.5900  156.4810 C   0  0  0  0  0  3  0  0  0  0  0  0
  136.1530  135.9130  155.1190 C   0  0  0  0  0  0  0  0  0  0  0  0
  136.9460  137.0150  154.7820 C   0  0  0  0  0  3  0  0  0  0  0  0
  137.5930  137.7650  155.7650 C   0  0  0  0  0  3  0  0  0  0  0  0
  137.4450  137.4160  157.1100 C   0  0  0  0  0  0  0  0  0  0  0  0
  135.3800  136.4880  159.4890 C   0  0  0  0  0  1  0  0  0  0  0  0
  136.5630  136.0600  158.8260 O   0  0  0  0  0  0  0  0  0  0  0  0
  138.0830  138.1500  158.0750 O   0  0  0  0  0  0  0  0  0  0  0  0
  137.7800  139.0120  158.2860 H   0  0  0  0  0  0  0  0  0  0  0  0
  1 17  1  0  0  0  0
  2  3  2  0  0  0  0
  2  1  1  0  0  0  0
  4  1  1  0  0  0  0
  5  2  1  0  0  0  0
  6  5  2  0  0  0  0
  7 15  1  0  0  0  0
  7  5  1  0  0  0  0
  8  7  2  0  0  0  0
  9  8  1  0  0  0  0
  9 10  1  0  0  0  0
 10 11  2  0  0  0  0
 10 15  1  0  0  0  0
 11 12  1  0  0  0  0
 12 13  2  0  0  0  0
 14 13  1  0  0  0  0
 15 14  2  0  0  0  0
 16  9  1  0  0  0  0
 17 20  1  0  0  0  0
 18 25  1  0  0  0  0
 19 18  2  0  0  0  0
 20 19  1  0  0  0  0
 21 20  2  0  0  0  0
 21 22  1  0  0  0  0
 22 23  2  0  0  0  0
 23 18  1  0  0  0  0
 23 26  1  0  0  0  0
 25 24  1  0  0  0  0
 26 27  1  0  0  0  0
M  END
>  <MODEL>
6

>  <REMARK>
 VINA RESULT:    -7.344      3.927      8.146
 INTER + INTRA:          -9.964
 INTER:                  -9.026
 INTRA:                  -0.939
 UNBOUND:                -0.260
  Name = CHEMBL145980
  7 active torsions:
  status: ('A' for Active; 'I' for Inactive)
    1  A    between atoms: C_1  and  O_2
    2  A    between atoms: O_2  and  C_3
    3  A    between atoms: C_5  and  C_6
    4  A    between atoms: C_6  and  N_7
    5  A    between atoms: C_8  and  C_10
    6  A    between atoms: C_10  and  C_12
    7  A    between atoms: C_23  and  O_24
                            x       y       z     vdW  Elec       q    Type
                         _______ _______ _______ _____ _____    ______ ____

>  <TORSDO>
F 6

>  <SCORE>
-7.344

>  <RMSD_LB>
3.927

>  <RMSD_UB>
8.146

$$$$
CHEMBL145980
 OpenBabel10172500543D

 27 29  0  0  0  0  0  0  0  0999 V2000
  145.7500  136.3260  150.6420 N   0  0  0  0  0  0  0  0  0  0  0  0
  144.8610  136.7630  149.6860 C   0  0  0  0  0  0  0  0  0  0  0  0
  145.1150  137.6400  148.8750 O   0  0  0  0  0  0  0  0  0  0  0  0
  145.5040  135.5820  151.2380 H   0  0  0  0  0  0  0  0  0  0  0  0
  143.4910  136.0270  149.7210 C   0  0  0  0  0  0  0  0  0  0  0  0
  143.4480  134.9200  149.1800 O   0  0  0  0  0  0  0  0  0  0  0  0
  142.3320  136.6410  150.3660 C   0  0  0  0  0  0  0  0  0  0  0  0
  141.0890  136.8170  149.7880 C   0  0  0  0  0  3  0  0  0  0  0  0
  140.2490  137.3640  150.7120 N   0  0  0  0  0  0  0  0  0  0  0  0
  140.9210  137.6180  151.8760 C   0  0  0  0  0  0  0  0  0  0  0  0
  140.4780  138.1770  153.0730 C   0  0  0  0  0  3  0  0  0  0  0  0
  141.4060  138.3380  154.1040 C   0  0  0  0  0  3  0  0  0  0  0  0
  142.7310  137.9460  153.9450 C   0  0  0  0  0  3  0  0  0  0  0  0
  143.1620  137.3650  152.7480 C   0  0  0  0  0  3  0  0  0  0  0  0
  142.2460  137.1890  151.6880 C   0  0  0  0  0  0  0  0  0  0  0  0
  139.2940  137.5490  150.5620 H   0  0  0  0  0  0  0  0  0  0  0  0
  147.0430  136.9580  150.7720 C   0  0  0  0  0  2  0  0  0  0  0  0
  147.1100  140.3620  152.5510 C   0  0  0  0  0  0  0  0  0  0  0  0
  147.0210  139.3850  151.5480 C   0  0  0  0  0  3  0  0  0  0  0  0
  147.1030  138.0120  151.8510 C   0  0  0  0  0  0  0  0  0  0  0  0
  147.3070  137.6380  153.1830 C   0  0  0  0  0  3  0  0  0  0  0  0
  147.4040  138.5950  154.1940 C   0  0  0  0  0  3  0  0  0  0  0  0
  147.3020  139.9520  153.8740 C   0  0  0  0  0  0  0  0  0  0  0  0
  145.7950  142.1960  151.7950 C   0  0  0  0  0  1  0  0  0  0  0  0
  147.0210  141.7130  152.3310 O   0  0  0  0  0  0  0  0  0  0  0  0
  147.3940  140.8920  154.8670 O   0  0  0  0  0  0  0  0  0  0  0  0
  148.2290  141.2500  155.0980 H   0  0  0  0  0  0  0  0  0  0  0  0
  1 17  1  0  0  0  0
  1  4  1  0  0  0  0
  2  5  1  0  0  0  0
  2  1  1  0  0  0  0
  3  2  2  0  0  0  0
  5  7  1  0  0  0  0
  6  5  2  0  0  0  0
  7 15  1  0  0  0  0
  8  7  2  0  0  0  0
  8  9  1  0  0  0  0
  9 10  1  0  0  0  0
 10 11  1  0  0  0  0
 11 12  2  0  0  0  0
 13 12  1  0  0  0  0
 14 13  2  0  0  0  0
 15 10  2  0  0  0  0
 15 14  1  0  0  0  0
 16  9  1  0  0  0  0
 17 20  1  0  0  0  0
 18 23  1  0  0  0  0
 19 20  1  0  0  0  0
 19 18  2  0  0  0  0
 20 21  2  0  0  0  0
 21 22  1  0  0  0  0
 23 22  2  0  0  0  0
 23 26  1  0  0  0  0
 24 25  1  0  0  0  0
 25 18  1  0  0  0  0
 26 27  1  0  0  0  0
M  END
>  <MODEL>
7

>  <REMARK>
 VINA RESULT:    -7.314      9.198     12.118
 INTER + INTRA:          -9.926
 INTER:                  -8.886
 INTRA:                  -1.039
 UNBOUND:                -0.260
  Name = CHEMBL145980
  7 active torsions:
  status: ('A' for Active; 'I' for Inactive)
    1  A    between atoms: C_1  and  O_2
    2  A    between atoms: O_2  and  C_3
    3  A    between atoms: C_5  and  C_6
    4  A    between atoms: C_6  and  N_7
    5  A    between atoms: C_8  and  C_10
    6  A    between atoms: C_10  and  C_12
    7  A    between atoms: C_23  and  O_24
                            x       y       z     vdW  Elec       q    Type
                         _______ _______ _______ _____ _____    ______ ____

>  <TORSDO>
F 6

>  <SCORE>
-7.314

>  <RMSD_LB>
9.198

>  <RMSD_UB>
12.118

$$$$
CHEMBL145980
 OpenBabel10172500543D

 27 29  0  0  0  0  0  0  0  0999 V2000
  139.3400  137.1030  150.2520 N   0  0  0  0  0  0  0  0  0  0  0  0
  138.8890  136.3840  149.1680 C   0  0  0  0  0  0  0  0  0  0  0  0
  139.5870  135.6070  148.5330 O   0  0  0  0  0  0  0  0  0  0  0  0
  138.7170  137.6780  150.7530 H   0  0  0  0  0  0  0  0  0  0  0  0
  137.3950  136.6400  148.8230 C   0  0  0  0  0  0  0  0  0  0  0  0
  137.0090  137.8100  148.8850 O   0  0  0  0  0  0  0  0  0  0  0  0
  136.5160  135.5330  148.4500 C   0  0  0  0  0  0  0  0  0  0  0  0
  136.3390  135.0430  147.1710 C   0  0  0  0  0  3  0  0  0  0  0  0
  135.4950  133.9730  147.2230 N   0  0  0  0  0  0  0  0  0  0  0  0
  135.0530  133.7770  148.5030 C   0  0  0  0  0  0  0  0  0  0  0  0
  134.1790  132.8230  149.0230 C   0  0  0  0  0  3  0  0  0  0  0  0
  133.8880  132.8770  150.3880 C   0  0  0  0  0  3  0  0  0  0  0  0
  134.4580  133.8470  151.2060 C   0  0  0  0  0  3  0  0  0  0  0  0
  135.3510  134.7860  150.6800 C   0  0  0  0  0  3  0  0  0  0  0  0
  135.6650  134.7560  149.3030 C   0  0  0  0  0  0  0  0  0  0  0  0
  135.2410  133.4200  146.4500 H   0  0  0  0  0  0  0  0  0  0  0  0
  140.7240  137.0160  150.6550 C   0  0  0  0  0  2  0  0  0  0  0  0
  140.2560  138.7590  154.0460 C   0  0  0  0  0  0  0  0  0  0  0  0
  139.9810  138.1510  152.8120 C   0  0  0  0  0  3  0  0  0  0  0  0
  141.0110  137.6400  152.0000 C   0  0  0  0  0  0  0  0  0  0  0  0
  142.3320  137.7780  152.4380 C   0  0  0  0  0  3  0  0  0  0  0  0
  142.6270  138.3850  153.6600 C   0  0  0  0  0  3  0  0  0  0  0  0
  141.5870  138.8690  154.4600 C   0  0  0  0  0  0  0  0  0  0  0  0
  138.0850  138.5360  154.9940 C   0  0  0  0  0  1  0  0  0  0  0  0
  139.3030  139.2630  154.8950 O   0  0  0  0  0  0  0  0  0  0  0  0
  141.8760  139.4630  155.6610 O   0  0  0  0  0  0  0  0  0  0  0  0
  141.9940  140.3910  155.7090 H   0  0  0  0  0  0  0  0  0  0  0  0
  1 17  1  0  0  0  0
  1  4  1  0  0  0  0
  2  1  1  0  0  0  0
  3  2  2  0  0  0  0
  5  6  2  0  0  0  0
  5  2  1  0  0  0  0
  7  5  1  0  0  0  0
  7 15  1  0  0  0  0
  8  9  1  0  0  0  0
  8  7  2  0  0  0  0
  9 10  1  0  0  0  0
 10 11  2  0  0  0  0
 10 15  1  0  0  0  0
 11 12  1  0  0  0  0
 12 13  2  0  0  0  0
 14 13  1  0  0  0  0
 15 14  2  0  0  0  0
 16  9  1  0  0  0  0
 17 20  1  0  0  0  0
 18 23  1  0  0  0  0
 18 25  1  0  0  0  0
 19 18  2  0  0  0  0
 20 21  2  0  0  0  0
 20 19  1  0  0  0  0
 21 22  1  0  0  0  0
 22 23  2  0  0  0  0
 23 26  1  0  0  0  0
 25 24  1  0  0  0  0
 26 27  1  0  0  0  0
M  END
>  <MODEL>
8

>  <REMARK>
 VINA RESULT:    -7.188      4.470      9.092
 INTER + INTRA:          -9.759
 INTER:                  -9.183
 INTRA:                  -0.576
 UNBOUND:                -0.260
  Name = CHEMBL145980
  7 active torsions:
  status: ('A' for Active; 'I' for Inactive)
    1  A    between atoms: C_1  and  O_2
    2  A    between atoms: O_2  and  C_3
    3  A    between atoms: C_5  and  C_6
    4  A    between atoms: C_6  and  N_7
    5  A    between atoms: C_8  and  C_10
    6  A    between atoms: C_10  and  C_12
    7  A    between atoms: C_23  and  O_24
                            x       y       z     vdW  Elec       q    Type
                         _______ _______ _______ _____ _____    ______ ____

>  <TORSDO>
F 6

>  <SCORE>
-7.188

>  <RMSD_LB>
4.470

>  <RMSD_UB>
9.092

$$$$
CHEMBL145980
 OpenBabel10172500543D

 27 29  0  0  0  0  0  0  0  0999 V2000
  136.4070  134.7110  148.0340 N   0  0  0  0  0  0  0  0  0  0  0  0
  135.6840  135.5570  147.2230 C   0  0  0  0  0  0  0  0  0  0  0  0
  135.5100  136.7420  147.4650 O   0  0  0  0  0  0  0  0  0  0  0  0
  136.5530  133.7760  147.7620 H   0  0  0  0  0  0  0  0  0  0  0  0
  135.1090  134.8690  145.9530 C   0  0  0  0  0  0  0  0  0  0  0  0
  134.1230  135.4030  145.4380 O   0  0  0  0  0  0  0  0  0  0  0  0
  135.7230  133.6550  145.4200 C   0  0  0  0  0  0  0  0  0  0  0  0
  135.7870  132.4350  146.0670 C   0  0  0  0  0  3  0  0  0  0  0  0
  136.3760  131.5280  145.2370 N   0  0  0  0  0  0  0  0  0  0  0  0
  136.7680  132.1310  144.0730 C   0  0  0  0  0  0  0  0  0  0  0  0
  137.4130  131.6070  142.9540 C   0  0  0  0  0  3  0  0  0  0  0  0
  137.7120  132.4760  141.9030 C   0  0  0  0  0  3  0  0  0  0  0  0
  137.3690  133.8230  141.9650 C   0  0  0  0  0  3  0  0  0  0  0  0
  136.7020  134.3360  143.0830 C   0  0  0  0  0  3  0  0  0  0  0  0
  136.3860  133.4810  144.1610 C   0  0  0  0  0  0  0  0  0  0  0  0
  136.5010  130.5750  145.4460 H   0  0  0  0  0  0  0  0  0  0  0  0
  136.9520  135.1930  149.2820 C   0  0  0  0  0  2  0  0  0  0  0  0
  135.3060  135.6330  152.7240 C   0  0  0  0  0  0  0  0  0  0  0  0
  136.1510  135.8150  151.6190 C   0  0  0  0  0  3  0  0  0  0  0  0
  136.0240  135.0250  150.4610 C   0  0  0  0  0  0  0  0  0  0  0  0
  135.0480  134.0230  150.4440 C   0  0  0  0  0  3  0  0  0  0  0  0
  134.2020  133.8230  151.5360 C   0  0  0  0  0  3  0  0  0  0  0  0
  134.3320  134.6310  152.6690 C   0  0  0  0  0  0  0  0  0  0  0  0
  136.5990  136.3810  154.5770 C   0  0  0  0  0  1  0  0  0  0  0  0
  135.3610  136.3760  153.8760 O   0  0  0  0  0  0  0  0  0  0  0  0
  133.5000  134.4360  153.7400 O   0  0  0  0  0  0  0  0  0  0  0  0
  132.6450  134.8190  153.7460 H   0  0  0  0  0  0  0  0  0  0  0  0
  1 17  1  0  0  0  0
  2  3  2  0  0  0  0
  2  1  1  0  0  0  0
  4  1  1  0  0  0  0
  5  2  1  0  0  0  0
  6  5  2  0  0  0  0
  7  5  1  0  0  0  0
  7  8  2  0  0  0  0
  9 16  1  0  0  0  0
  9  8  1  0  0  0  0
 10 15  1  0  0  0  0
 10  9  1  0  0  0  0
 11 10  2  0  0  0  0
 12 13  2  0  0  0  0
 12 11  1  0  0  0  0
 13 14  1  0  0  0  0
 14 15  2  0  0  0  0
 15  7  1  0  0  0  0
 17 20  1  0  0  0  0
 18 25  1  0  0  0  0
 19 18  2  0  0  0  0
 20 19  1  0  0  0  0
 21 20  2  0  0  0  0
 21 22  1  0  0  0  0
 22 23  2  0  0  0  0
 23 18  1  0  0  0  0
 23 26  1  0  0  0  0
 25 24  1  0  0  0  0
 26 27  1  0  0  0  0
M  END
>  <MODEL>
9

>  <REMARK>
 VINA RESULT:    -7.181      3.657      9.456
 INTER + INTRA:          -9.750
 INTER:                  -9.491
 INTRA:                  -0.260
 UNBOUND:                -0.260
  Name = CHEMBL145980
  7 active torsions:
  status: ('A' for Active; 'I' for Inactive)
    1  A    between atoms: C_1  and  O_2
    2  A    between atoms: O_2  and  C_3
    3  A    between atoms: C_5  and  C_6
    4  A    between atoms: C_6  and  N_7
    5  A    between atoms: C_8  and  C_10
    6  A    between atoms: C_10  and  C_12
    7  A    between atoms: C_23  and  O_24
                            x       y       z     vdW  Elec       q    Type
                         _______ _______ _______ _____ _____    ______ ____

>  <TORSDO>
F 6

>  <SCORE>
-7.181

>  <RMSD_LB>
3.657

>  <RMSD_UB>
9.456

$$$$
