CHEMBL443859
 OpenBabel10172500163D

 15 15  0  0  0  0  0  0  0  0999 V2000
  133.6810  134.0730  150.3560 C   0  0  0  0  0  0  0  0  0  0  0  0
  134.0980  132.8290  149.8730 C   0  0  0  0  0  3  0  0  0  0  0  0
  133.9480  132.5130  148.5240 C   0  0  0  0  0  3  0  0  0  0  0  0
  133.3920  133.4420  147.6380 C   0  0  0  0  0  0  0  0  0  0  0  0
  133.0260  134.7160  148.0860 C   0  0  0  0  0  0  0  0  0  0  0  0
  133.1830  135.0200  149.4470 C   0  0  0  0  0  3  0  0  0  0  0  0
  133.2110  133.0570  146.3390 O   0  0  0  0  0  0  0  0  0  0  0  0
  133.8520  133.2770  145.6910 H   0  0  0  0  0  0  0  0  0  0  0  0
  132.4910  135.7500  147.3660 O   0  0  0  0  0  0  0  0  0  0  0  0
  132.7120  137.0720  147.8340 C   0  0  0  0  0  1  0  0  0  0  0  0
  133.7540  134.3830  151.8310 C   0  0  0  0  0  2  0  0  0  0  0  0
  134.7290  135.4820  152.1760 C   0  0  0  0  0  0  0  0  0  0  0  0
  135.8680  135.5820  151.7400 O   0  0  0  0  0  0  0  0  0  0  0  0
  133.9080  135.6900  154.3500 C   0  0  0  0  0  1  0  0  0  0  0  0
  134.1740  136.3270  153.0990 O   0  0  0  0  0  0  0  0  0  0  0  0
  1 11  1  0  0  0  0
  2  1  1  0  0  0  0
  3  2  2  0  0  0  0
  4  5  2  0  0  0  0
  4  3  1  0  0  0  0
  5  6  1  0  0  0  0
  6  1  2  0  0  0  0
  7  4  1  0  0  0  0
  8  7  1  0  0  0  0
  9 10  1  0  0  0  0
  9  5  1  0  0  0  0
 11 12  1  0  0  0  0
 12 15  1  0  0  0  0
 13 12  2  0  0  0  0
 15 14  1  0  0  0  0
M  END
>  <MODEL>
1

>  <REMARK>
 VINA RESULT:    -5.416      0.000      0.000
 INTER + INTRA:          -7.133
 INTER:                  -6.887
 INTRA:                  -0.246
 UNBOUND:                -0.292
  Name = CHEMBL443859
  7 active torsions:
  status: ('A' for Active; 'I' for Inactive)
    1  A    between atoms: C_1  and  O_2
    2  A    between atoms: O_2  and  C_3
    3  A    between atoms: C_3  and  C_5
    4  A    between atoms: C_5  and  C_6
    5  A    between atoms: C_9  and  O_10
    6  A    between atoms: C_11  and  O_12
    7  A    between atoms: O_12  and  C_13
                            x       y       z     vdW  Elec       q    Type
                         _______ _______ _______ _____ _____    ______ ____

>  <TORSDO>
F 5

>  <SCORE>
-5.416

>  <RMSD_LB>
0.000

>  <RMSD_UB>
0.000

$$$$
CHEMBL443859
 OpenBabel10172500163D

 15 15  0  0  0  0  0  0  0  0999 V2000
  146.8710  141.8940  152.5990 C   0  0  0  0  0  0  0  0  0  0  0  0
  147.8020  142.3530  151.6630 C   0  0  0  0  0  3  0  0  0  0  0  0
  147.4990  142.3340  150.3020 C   0  0  0  0  0  3  0  0  0  0  0  0
  146.2550  141.8690  149.8630 C   0  0  0  0  0  0  0  0  0  0  0  0
  145.2840  141.4650  150.7850 C   0  0  0  0  0  0  0  0  0  0  0  0
  145.6030  141.4900  152.1510 C   0  0  0  0  0  3  0  0  0  0  0  0
  146.0330  141.8140  148.5140 O   0  0  0  0  0  0  0  0  0  0  0  0
  145.6800  142.5570  148.0670 H   0  0  0  0  0  0  0  0  0  0  0  0
  144.0180  141.0040  150.5410 O   0  0  0  0  0  0  0  0  0  0  0  0
  143.7970  139.6020  150.5970 C   0  0  0  0  0  1  0  0  0  0  0  0
  147.2310  141.8250  154.0630 C   0  0  0  0  0  2  0  0  0  0  0  0
  147.8290  140.5040  154.4820 C   0  0  0  0  0  0  0  0  0  0  0  0
  149.0140  140.2070  154.4110 O   0  0  0  0  0  0  0  0  0  0  0  0
  147.3300  138.5810  155.7060 C   0  0  0  0  0  1  0  0  0  0  0  0
  146.8390  139.6560  154.9030 O   0  0  0  0  0  0  0  0  0  0  0  0
  1 11  1  0  0  0  0
  2  1  2  0  0  0  0
  3  2  1  0  0  0  0
  4  3  2  0  0  0  0
  4  5  1  0  0  0  0
  5  6  2  0  0  0  0
  6  1  1  0  0  0  0
  7  4  1  0  0  0  0
  8  7  1  0  0  0  0
  9 10  1  0  0  0  0
  9  5  1  0  0  0  0
 11 12  1  0  0  0  0
 12 15  1  0  0  0  0
 13 12  2  0  0  0  0
 15 14  1  0  0  0  0
M  END
>  <MODEL>
2

>  <REMARK>
 VINA RESULT:    -5.266     13.054     14.680
 INTER + INTRA:          -6.943
 INTER:                  -6.699
 INTRA:                  -0.244
 UNBOUND:                -0.292
  Name = CHEMBL443859
  7 active torsions:
  status: ('A' for Active; 'I' for Inactive)
    1  A    between atoms: C_1  and  O_2
    2  A    between atoms: O_2  and  C_3
    3  A    between atoms: C_3  and  C_5
    4  A    between atoms: C_5  and  C_6
    5  A    between atoms: C_9  and  O_10
    6  A    between atoms: C_11  and  O_12
    7  A    between atoms: O_12  and  C_13
                            x       y       z     vdW  Elec       q    Type
                         _______ _______ _______ _____ _____    ______ ____

>  <TORSDO>
F 5

>  <SCORE>
-5.266

>  <RMSD_LB>
13.054

>  <RMSD_UB>
14.680

$$$$
CHEMBL443859
 OpenBabel10172500163D

 15 15  0  0  0  0  0  0  0  0999 V2000
  146.6190  142.0920  151.3230 C   0  0  0  0  0  0  0  0  0  0  0  0
  147.6710  142.5020  150.5010 C   0  0  0  0  0  3  0  0  0  0  0  0
  148.9700  142.5710  151.0020 C   0  0  0  0  0  3  0  0  0  0  0  0
  149.2340  142.2170  152.3300 C   0  0  0  0  0  0  0  0  0  0  0  0
  148.2070  141.7430  153.1530 C   0  0  0  0  0  0  0  0  0  0  0  0
  146.9050  141.6790  152.6340 C   0  0  0  0  0  3  0  0  0  0  0  0
  150.5140  142.3620  152.7880 O   0  0  0  0  0  0  0  0  0  0  0  0
  151.1530  141.7010  152.6100 H   0  0  0  0  0  0  0  0  0  0  0  0
  148.2820  141.3360  154.4580 O   0  0  0  0  0  0  0  0  0  0  0  0
  148.2810  139.9400  154.7220 C   0  0  0  0  0  1  0  0  0  0  0  0
  145.1990  142.1070  150.8110 C   0  0  0  0  0  2  0  0  0  0  0  0
  144.5550  140.7430  150.7580 C   0  0  0  0  0  0  0  0  0  0  0  0
  143.6430  140.3610  151.4790 O   0  0  0  0  0  0  0  0  0  0  0  0
  145.4640  138.6460  150.2870 C   0  0  0  0  0  1  0  0  0  0  0  0
  145.1820  139.9670  149.8210 O   0  0  0  0  0  0  0  0  0  0  0  0
  1  6  1  0  0  0  0
  2  3  1  0  0  0  0
  2  1  2  0  0  0  0
  3  4  2  0  0  0  0
  4  7  1  0  0  0  0
  4  5  1  0  0  0  0
  5  9  1  0  0  0  0
  6  5  2  0  0  0  0
  8  7  1  0  0  0  0
  9 10  1  0  0  0  0
 11  1  1  0  0  0  0
 12 11  1  0  0  0  0
 12 13  2  0  0  0  0
 15 14  1  0  0  0  0
 15 12  1  0  0  0  0
M  END
>  <MODEL>
3

>  <REMARK>
 VINA RESULT:    -5.190     13.611     15.820
 INTER + INTRA:          -6.847
 INTER:                  -6.526
 INTRA:                  -0.321
 UNBOUND:                -0.292
  Name = CHEMBL443859
  7 active torsions:
  status: ('A' for Active; 'I' for Inactive)
    1  A    between atoms: C_1  and  O_2
    2  A    between atoms: O_2  and  C_3
    3  A    between atoms: C_3  and  C_5
    4  A    between atoms: C_5  and  C_6
    5  A    between atoms: C_9  and  O_10
    6  A    between atoms: C_11  and  O_12
    7  A    between atoms: O_12  and  C_13
                            x       y       z     vdW  Elec       q    Type
                         _______ _______ _______ _____ _____    ______ ____

>  <TORSDO>
F 5

>  <SCORE>
-5.190

>  <RMSD_LB>
13.611

>  <RMSD_UB>
15.820

$$$$
CHEMBL443859
 OpenBabel10172500163D

 15 15  0  0  0  0  0  0  0  0999 V2000
  133.9680  133.6940  150.1600 C   0  0  0  0  0  0  0  0  0  0  0  0
  132.7320  133.5310  149.5290 C   0  0  0  0  0  3  0  0  0  0  0  0
  132.6360  133.6060  148.1410 C   0  0  0  0  0  3  0  0  0  0  0  0
  133.7790  133.8330  147.3660 C   0  0  0  0  0  0  0  0  0  0  0  0
  135.0360  133.9370  147.9710 C   0  0  0  0  0  0  0  0  0  0  0  0
  135.1160  133.8580  149.3690 C   0  0  0  0  0  3  0  0  0  0  0  0
  133.6190  133.9610  146.0140 O   0  0  0  0  0  0  0  0  0  0  0  0
  134.1560  134.5590  145.5320 H   0  0  0  0  0  0  0  0  0  0  0  0
  136.2530  134.1370  147.3760 O   0  0  0  0  0  0  0  0  0  0  0  0
  136.9260  133.0070  146.8400 C   0  0  0  0  0  1  0  0  0  0  0  0
  134.0600  133.7070  151.6670 C   0  0  0  0  0  2  0  0  0  0  0  0
  133.6840  135.0300  152.2900 C   0  0  0  0  0  0  0  0  0  0  0  0
  133.7010  136.1120  151.7210 O   0  0  0  0  0  0  0  0  0  0  0  0
  133.9750  135.8260  154.4640 C   0  0  0  0  0  1  0  0  0  0  0  0
  133.3720  134.8510  153.6110 O   0  0  0  0  0  0  0  0  0  0  0  0
  1 11  1  0  0  0  0
  2  1  1  0  0  0  0
  3  2  2  0  0  0  0
  4  5  2  0  0  0  0
  4  3  1  0  0  0  0
  5  6  1  0  0  0  0
  6  1  2  0  0  0  0
  7  4  1  0  0  0  0
  8  7  1  0  0  0  0
  9  5  1  0  0  0  0
 10  9  1  0  0  0  0
 11 12  1  0  0  0  0
 12 15  1  0  0  0  0
 13 12  2  0  0  0  0
 15 14  1  0  0  0  0
M  END
>  <MODEL>
4

>  <REMARK>
 VINA RESULT:    -5.030      1.686      2.376
 INTER + INTRA:          -6.644
 INTER:                  -6.418
 INTRA:                  -0.226
 UNBOUND:                -0.292
  Name = CHEMBL443859
  7 active torsions:
  status: ('A' for Active; 'I' for Inactive)
    1  A    between atoms: C_1  and  O_2
    2  A    between atoms: O_2  and  C_3
    3  A    between atoms: C_3  and  C_5
    4  A    between atoms: C_5  and  C_6
    5  A    between atoms: C_9  and  O_10
    6  A    between atoms: C_11  and  O_12
    7  A    between atoms: O_12  and  C_13
                            x       y       z     vdW  Elec       q    Type
                         _______ _______ _______ _____ _____    ______ ____

>  <TORSDO>
F 5

>  <SCORE>
-5.030

>  <RMSD_LB>
1.686

>  <RMSD_UB>
2.376

$$$$
CHEMBL443859
 OpenBabel10172500163D

 15 15  0  0  0  0  0  0  0  0999 V2000
  133.0740  135.3440  150.4330 C   0  0  0  0  0  0  0  0  0  0  0  0
  132.7590  136.6430  150.0250 C   0  0  0  0  0  3  0  0  0  0  0  0
  132.6050  136.9360  148.6710 C   0  0  0  0  0  3  0  0  0  0  0  0
  132.7510  135.9300  147.7100 C   0  0  0  0  0  0  0  0  0  0  0  0
  133.0040  134.6110  148.0980 C   0  0  0  0  0  0  0  0  0  0  0  0
  133.1550  134.3310  149.4650 C   0  0  0  0  0  3  0  0  0  0  0  0
  132.6510  136.2860  146.3930 O   0  0  0  0  0  0  0  0  0  0  0  0
  131.9120  136.7770  146.0950 H   0  0  0  0  0  0  0  0  0  0  0  0
  133.1560  133.5040  147.3060 O   0  0  0  0  0  0  0  0  0  0  0  0
  134.4230  133.2860  146.7030 C   0  0  0  0  0  1  0  0  0  0  0  0
  133.3340  135.0430  151.8900 C   0  0  0  0  0  2  0  0  0  0  0  0
  134.5150  135.7860  152.4640 C   0  0  0  0  0  0  0  0  0  0  0  0
  135.6340  135.8300  151.9710 O   0  0  0  0  0  0  0  0  0  0  0  0
  134.9690  135.9070  154.7500 C   0  0  0  0  0  1  0  0  0  0  0  0
  134.1690  136.3620  153.6580 O   0  0  0  0  0  0  0  0  0  0  0  0
  1 11  1  0  0  0  0
  2  1  1  0  0  0  0
  3  2  2  0  0  0  0
  4  5  2  0  0  0  0
  4  3  1  0  0  0  0
  5  6  1  0  0  0  0
  6  1  2  0  0  0  0
  7  4  1  0  0  0  0
  8  7  1  0  0  0  0
  9  5  1  0  0  0  0
 10  9  1  0  0  0  0
 11 12  1  0  0  0  0
 12 15  1  0  0  0  0
 13 12  2  0  0  0  0
 15 14  1  0  0  0  0
M  END
>  <MODEL>
5

>  <REMARK>
 VINA RESULT:    -4.915      1.088      2.453
 INTER + INTRA:          -6.500
 INTER:                  -6.262
 INTRA:                  -0.238
 UNBOUND:                -0.292
  Name = CHEMBL443859
  7 active torsions:
  status: ('A' for Active; 'I' for Inactive)
    1  A    between atoms: C_1  and  O_2
    2  A    between atoms: O_2  and  C_3
    3  A    between atoms: C_3  and  C_5
    4  A    between atoms: C_5  and  C_6
    5  A    between atoms: C_9  and  O_10
    6  A    between atoms: C_11  and  O_12
    7  A    between atoms: O_12  and  C_13
                            x       y       z     vdW  Elec       q    Type
                         _______ _______ _______ _____ _____    ______ ____

>  <TORSDO>
F 5

>  <SCORE>
-4.915

>  <RMSD_LB>
1.088

>  <RMSD_UB>
2.453

$$$$
CHEMBL443859
 OpenBabel10172500163D

 15 15  0  0  0  0  0  0  0  0999 V2000
  146.8400  141.6100  151.7870 C   0  0  0  0  0  0  0  0  0  0  0  0
  146.7380  142.2780  153.0100 C   0  0  0  0  0  3  0  0  0  0  0  0
  147.2490  141.7010  154.1710 C   0  0  0  0  0  3  0  0  0  0  0  0
  147.8800  140.4530  154.1210 C   0  0  0  0  0  0  0  0  0  0  0  0
  148.0490  139.7950  152.8980 C   0  0  0  0  0  0  0  0  0  0  0  0
  147.5310  140.3890  151.7380 C   0  0  0  0  0  3  0  0  0  0  0  0
  148.3070  139.9050  155.2980 O   0  0  0  0  0  0  0  0  0  0  0  0
  147.8620  140.1070  156.0980 H   0  0  0  0  0  0  0  0  0  0  0  0
  148.6530  138.5900  152.6570 O   0  0  0  0  0  0  0  0  0  0  0  0
  147.8310  137.4330  152.5990 C   0  0  0  0  0  1  0  0  0  0  0  0
  146.2050  142.1890  150.5450 C   0  0  0  0  0  2  0  0  0  0  0  0
  145.4930  141.1680  149.6920 C   0  0  0  0  0  0  0  0  0  0  0  0
  145.8960  140.7320  148.6230 O   0  0  0  0  0  0  0  0  0  0  0  0
  143.4580  140.0640  149.4000 C   0  0  0  0  0  1  0  0  0  0  0  0
  144.2920  140.8400  150.2630 O   0  0  0  0  0  0  0  0  0  0  0  0
  1  2  1  0  0  0  0
  2  3  2  0  0  0  0
  4  3  1  0  0  0  0
  4  7  1  0  0  0  0
  5  4  2  0  0  0  0
  6  1  2  0  0  0  0
  6  5  1  0  0  0  0
  7  8  1  0  0  0  0
  9  5  1  0  0  0  0
 10  9  1  0  0  0  0
 11  1  1  0  0  0  0
 12 15  1  0  0  0  0
 12 11  1  0  0  0  0
 13 12  2  0  0  0  0
 14 15  1  0  0  0  0
M  END
>  <MODEL>
6

>  <REMARK>
 VINA RESULT:    -4.868     13.017     15.301
 INTER + INTRA:          -6.440
 INTER:                  -6.176
 INTRA:                  -0.265
 UNBOUND:                -0.292
  Name = CHEMBL443859
  7 active torsions:
  status: ('A' for Active; 'I' for Inactive)
    1  A    between atoms: C_1  and  O_2
    2  A    between atoms: O_2  and  C_3
    3  A    between atoms: C_3  and  C_5
    4  A    between atoms: C_5  and  C_6
    5  A    between atoms: C_9  and  O_10
    6  A    between atoms: C_11  and  O_12
    7  A    between atoms: O_12  and  C_13
                            x       y       z     vdW  Elec       q    Type
                         _______ _______ _______ _____ _____    ______ ____

>  <TORSDO>
F 5

>  <SCORE>
-4.868

>  <RMSD_LB>
13.017

>  <RMSD_UB>
15.301

$$$$
CHEMBL443859
 OpenBabel10172500163D

 15 15  0  0  0  0  0  0  0  0999 V2000
  146.4820  140.8780  152.6800 C   0  0  0  0  0  0  0  0  0  0  0  0
  146.1120  142.1910  152.3760 C   0  0  0  0  0  3  0  0  0  0  0  0
  146.0000  142.6010  151.0490 C   0  0  0  0  0  3  0  0  0  0  0  0
  146.2440  141.6980  150.0080 C   0  0  0  0  0  0  0  0  0  0  0  0
  146.5540  140.3630  150.2880 C   0  0  0  0  0  0  0  0  0  0  0  0
  146.6620  139.9660  151.6290 C   0  0  0  0  0  3  0  0  0  0  0  0
  146.1810  142.1690  148.7260 O   0  0  0  0  0  0  0  0  0  0  0  0
  146.9700  142.3150  148.2410 H   0  0  0  0  0  0  0  0  0  0  0  0
  146.8020  139.3450  149.4070 O   0  0  0  0  0  0  0  0  0  0  0  0
  146.4100  138.0310  149.7800 C   0  0  0  0  0  1  0  0  0  0  0  0
  146.6960  140.4570  154.1140 C   0  0  0  0  0  2  0  0  0  0  0  0
  148.1340  140.1490  154.4510 C   0  0  0  0  0  0  0  0  0  0  0  0
  149.0600  140.9480  154.4080 O   0  0  0  0  0  0  0  0  0  0  0  0
  149.0270  138.0970  153.7890 C   0  0  0  0  0  1  0  0  0  0  0  0
  148.2670  138.8210  154.7580 O   0  0  0  0  0  0  0  0  0  0  0  0
  1 11  1  0  0  0  0
  2  1  1  0  0  0  0
  3  2  2  0  0  0  0
  4  5  2  0  0  0  0
  4  3  1  0  0  0  0
  5  6  1  0  0  0  0
  6  1  2  0  0  0  0
  7  4  1  0  0  0  0
  8  7  1  0  0  0  0
  9 10  1  0  0  0  0
  9  5  1  0  0  0  0
 11 12  1  0  0  0  0
 12 15  1  0  0  0  0
 13 12  2  0  0  0  0
 14 15  1  0  0  0  0
M  END
>  <MODEL>
7

>  <REMARK>
 VINA RESULT:    -4.810     13.613     14.920
 INTER + INTRA:          -6.367
 INTER:                  -6.068
 INTRA:                  -0.299
 UNBOUND:                -0.292
  Name = CHEMBL443859
  7 active torsions:
  status: ('A' for Active; 'I' for Inactive)
    1  A    between atoms: C_1  and  O_2
    2  A    between atoms: O_2  and  C_3
    3  A    between atoms: C_3  and  C_5
    4  A    between atoms: C_5  and  C_6
    5  A    between atoms: C_9  and  O_10
    6  A    between atoms: C_11  and  O_12
    7  A    between atoms: O_12  and  C_13
                            x       y       z     vdW  Elec       q    Type
                         _______ _______ _______ _____ _____    ______ ____

>  <TORSDO>
F 5

>  <SCORE>
-4.810

>  <RMSD_LB>
13.613

>  <RMSD_UB>
14.920

$$$$
CHEMBL443859
 OpenBabel10172500163D

 15 15  0  0  0  0  0  0  0  0999 V2000
  147.4530  140.3290  151.5560 C   0  0  0  0  0  0  0  0  0  0  0  0
  148.3370  141.4110  151.5400 C   0  0  0  0  0  3  0  0  0  0  0  0
  148.8700  141.9020  152.7310 C   0  0  0  0  0  3  0  0  0  0  0  0
  148.5340  141.3080  153.9520 C   0  0  0  0  0  0  0  0  0  0  0  0
  147.7000  140.1850  153.9880 C   0  0  0  0  0  0  0  0  0  0  0  0
  147.1730  139.7020  152.7810 C   0  0  0  0  0  3  0  0  0  0  0  0
  149.0340  141.8680  155.0940 O   0  0  0  0  0  0  0  0  0  0  0  0
  149.3210  142.7600  155.0920 H   0  0  0  0  0  0  0  0  0  0  0  0
  147.2840  139.4680  155.0770 O   0  0  0  0  0  0  0  0  0  0  0  0
  146.0540  138.7640  154.9810 C   0  0  0  0  0  1  0  0  0  0  0  0
  146.8010  139.8550  150.2790 C   0  0  0  0  0  2  0  0  0  0  0  0
  145.7610  140.8040  149.7370 C   0  0  0  0  0  0  0  0  0  0  0  0
  144.9790  141.4600  150.4120 O   0  0  0  0  0  0  0  0  0  0  0  0
  146.5640  139.7160  147.8360 C   0  0  0  0  0  1  0  0  0  0  0  0
  145.7770  140.7830  148.3680 O   0  0  0  0  0  0  0  0  0  0  0  0
  1  6  1  0  0  0  0
  2  1  2  0  0  0  0
  2  3  1  0  0  0  0
  3  4  2  0  0  0  0
  4  5  1  0  0  0  0
  4  7  1  0  0  0  0
  5  9  1  0  0  0  0
  6  5  2  0  0  0  0
  8  7  1  0  0  0  0
 10  9  1  0  0  0  0
 11  1  1  0  0  0  0
 12 11  1  0  0  0  0
 12 13  2  0  0  0  0
 14 15  1  0  0  0  0
 15 12  1  0  0  0  0
M  END
>  <MODEL>
8

>  <REMARK>
 VINA RESULT:    -4.795     13.543     15.766
 INTER + INTRA:          -6.348
 INTER:                  -6.074
 INTRA:                  -0.274
 UNBOUND:                -0.292
  Name = CHEMBL443859
  7 active torsions:
  status: ('A' for Active; 'I' for Inactive)
    1  A    between atoms: C_1  and  O_2
    2  A    between atoms: O_2  and  C_3
    3  A    between atoms: C_3  and  C_5
    4  A    between atoms: C_5  and  C_6
    5  A    between atoms: C_9  and  O_10
    6  A    between atoms: C_11  and  O_12
    7  A    between atoms: O_12  and  C_13
                            x       y       z     vdW  Elec       q    Type
                         _______ _______ _______ _____ _____    ______ ____

>  <TORSDO>
F 5

>  <SCORE>
-4.795

>  <RMSD_LB>
13.543

>  <RMSD_UB>
15.766

$$$$
CHEMBL443859
 OpenBabel10172500163D

 15 15  0  0  0  0  0  0  0  0999 V2000
  141.7940  137.8480  153.2980 C   0  0  0  0  0  0  0  0  0  0  0  0
  141.4960  138.1420  154.6300 C   0  0  0  0  0  3  0  0  0  0  0  0
  140.2220  138.5830  154.9850 C   0  0  0  0  0  3  0  0  0  0  0  0
  139.2260  138.7210  154.0120 C   0  0  0  0  0  0  0  0  0  0  0  0
  139.4830  138.3720  152.6820 C   0  0  0  0  0  0  0  0  0  0  0  0
  140.7700  137.9300  152.3410 C   0  0  0  0  0  3  0  0  0  0  0  0
  138.0140  139.2170  154.4040 O   0  0  0  0  0  0  0  0  0  0  0  0
  137.7450  139.1450  155.2990 H   0  0  0  0  0  0  0  0  0  0  0  0
  138.6340  138.4230  151.6090 O   0  0  0  0  0  0  0  0  0  0  0  0
  137.7980  137.3000  151.3680 C   0  0  0  0  0  1  0  0  0  0  0  0
  143.1970  137.4620  152.8960 C   0  0  0  0  0  2  0  0  0  0  0  0
  144.2120  138.5610  153.0920 C   0  0  0  0  0  0  0  0  0  0  0  0
  144.1760  139.6620  152.5600 O   0  0  0  0  0  0  0  0  0  0  0  0
  145.5390  139.0600  154.9450 C   0  0  0  0  0  1  0  0  0  0  0  0
  145.2190  138.1270  153.9120 O   0  0  0  0  0  0  0  0  0  0  0  0
  1  2  1  0  0  0  0
  2  3  2  0  0  0  0
  4  7  1  0  0  0  0
  4  3  1  0  0  0  0
  5  4  2  0  0  0  0
  6  5  1  0  0  0  0
  6  1  2  0  0  0  0
  7  8  1  0  0  0  0
  9  5  1  0  0  0  0
 10  9  1  0  0  0  0
 11 12  1  0  0  0  0
 11  1  1  0  0  0  0
 12 15  1  0  0  0  0
 13 12  2  0  0  0  0
 15 14  1  0  0  0  0
M  END
>  <MODEL>
9

>  <REMARK>
 VINA RESULT:    -4.594      7.670      9.827
 INTER + INTRA:          -6.094
 INTER:                  -5.802
 INTRA:                  -0.292
 UNBOUND:                -0.292
  Name = CHEMBL443859
  7 active torsions:
  status: ('A' for Active; 'I' for Inactive)
    1  A    between atoms: C_1  and  O_2
    2  A    between atoms: O_2  and  C_3
    3  A    between atoms: C_3  and  C_5
    4  A    between atoms: C_5  and  C_6
    5  A    between atoms: C_9  and  O_10
    6  A    between atoms: C_11  and  O_12
    7  A    between atoms: O_12  and  C_13
                            x       y       z     vdW  Elec       q    Type
                         _______ _______ _______ _____ _____    ______ ____

>  <TORSDO>
F 5

>  <SCORE>
-4.594

>  <RMSD_LB>
7.670

>  <RMSD_UB>
9.827

$$$$
