CHEMBL4228700
 OpenBabel10172500573D

 22 22  0  0  0  0  0  0  0  0999 V2000
  145.5740  140.4560  148.7630 C   0  0  0  0  0  0  0  0  0  0  0  0
  146.5960  139.9950  148.2580 O   0  0  0  0  0  0  0  0  0  0  0  0
  145.5620  141.5850  149.5580 N   0  0  0  0  0  0  0  0  0  0  0  0
  144.7150  141.8740  149.9670 H   0  0  0  0  0  0  0  0  0  0  0  0
  144.2050  139.7840  148.6030 C   0  0  0  0  0  2  0  0  0  0  0  0
  144.0590  138.6060  149.3940 O   0  0  0  0  0  0  0  0  0  0  0  0
  143.3790  138.8110  150.5580 C   0  0  0  0  0  0  0  0  0  0  0  0
  143.0950  139.9090  151.0110 O   0  0  0  0  0  0  0  0  0  0  0  0
  143.0930  137.4910  151.2340 C   0  0  0  0  0  2  0  0  0  0  0  0
  140.7010  137.5510  152.0460 C   0  0  0  0  0  1  0  0  0  0  0  0
  142.1650  137.6830  152.4320 C   0  0  0  0  0  2  0  0  0  0  0  0
  146.7620  142.3550  149.8040 C   0  0  0  0  0  2  0  0  0  0  0  0
  147.3460  142.0830  151.1650 C   0  0  0  0  0  0  0  0  0  0  0  0
  148.7030  142.3210  151.4090 C   0  0  0  0  0  3  0  0  0  0  0  0
  149.2530  142.0650  152.6640 C   0  0  0  0  0  3  0  0  0  0  0  0
  148.4510  141.5730  153.7000 C   0  0  0  0  0  0  0  0  0  0  0  0
  147.0890  141.3380  153.4860 C   0  0  0  0  0  0  0  0  0  0  0  0
  146.5510  141.6010  152.2160 C   0  0  0  0  0  3  0  0  0  0  0  0
  149.0410  141.3360  154.9110 O   0  0  0  0  0  0  0  0  0  0  0  0
  148.6030  141.5810  155.7030 H   0  0  0  0  0  0  0  0  0  0  0  0
  146.1570  140.8600  154.3710 O   0  0  0  0  0  0  0  0  0  0  0  0
  145.1880  139.9400  153.8890 C   0  0  0  0  0  1  0  0  0  0  0  0
  1  3  1  0  0  0  0
  2  1  2  0  0  0  0
  3 12  1  0  0  0  0
  3  4  1  0  0  0  0
  5  1  1  0  0  0  0
  5  6  1  0  0  0  0
  6  7  1  0  0  0  0
  7  8  2  0  0  0  0
  7  9  1  0  0  0  0
  9 11  1  0  0  0  0
 10 11  1  0  0  0  0
 12 13  1  0  0  0  0
 13 14  2  0  0  0  0
 13 18  1  0  0  0  0
 14 15  1  0  0  0  0
 15 16  2  0  0  0  0
 16 19  1  0  0  0  0
 17 16  1  0  0  0  0
 17 21  1  0  0  0  0
 18 17  2  0  0  0  0
 19 20  1  0  0  0  0
 22 21  1  0  0  0  0
M  END
>  <MODEL>
1

>  <REMARK>
 VINA RESULT:    -6.019      0.000      0.000
 INTER + INTRA:          -9.573
 INTER:                  -8.735
 INTRA:                  -0.838
 UNBOUND:                -0.563
  Name = CHEMBL4228700
  11 active torsions:
  status: ('A' for Active; 'I' for Inactive)
    1  A    between atoms: C_1  and  C_2
    2  A    between atoms: C_2  and  C_3
    3  A    between atoms: C_3  and  C_4
    4  A    between atoms: C_4  and  O_6
    5  A    between atoms: O_6  and  C_7
    6  A    between atoms: C_7  and  C_8
    7  A    between atoms: N_10  and  C_11
    8  A    between atoms: C_11  and  C_12
    9  A    between atoms: C_15  and  O_16
   10  A    between atoms: C_17  and  O_18
   11  A    between atoms: O_18  and  C_19
                            x       y       z     vdW  Elec       q    Type
                         _______ _______ _______ _____ _____    ______ ____

>  <TORSDO>
F 9

>  <SCORE>
-6.019

>  <RMSD_LB>
0.000

>  <RMSD_UB>
0.000

$$$$
CHEMBL4228700
 OpenBabel10172500573D

 22 22  0  0  0  0  0  0  0  0999 V2000
  134.3760  135.1840  154.8110 C   0  0  0  0  0  0  0  0  0  0  0  0
  133.8750  134.7130  155.8300 O   0  0  0  0  0  0  0  0  0  0  0  0
  135.6230  135.7790  154.7820 N   0  0  0  0  0  0  0  0  0  0  0  0
  135.9440  136.1760  153.9410 H   0  0  0  0  0  0  0  0  0  0  0  0
  133.6350  135.2100  153.4690 C   0  0  0  0  0  2  0  0  0  0  0  0
  134.1010  136.2290  152.5870 O   0  0  0  0  0  0  0  0  0  0  0  0
  133.8670  135.9620  151.2710 C   0  0  0  0  0  0  0  0  0  0  0  0
  132.7850  136.0970  150.7180 O   0  0  0  0  0  0  0  0  0  0  0  0
  135.1130  135.4100  150.6190 C   0  0  0  0  0  2  0  0  0  0  0  0
  136.9880  137.0670  150.2710 C   0  0  0  0  0  1  0  0  0  0  0  0
  136.3660  136.0490  151.2130 C   0  0  0  0  0  2  0  0  0  0  0  0
  136.4690  135.8300  155.9540 C   0  0  0  0  0  2  0  0  0  0  0  0
  137.6780  136.7030  155.7480 C   0  0  0  0  0  0  0  0  0  0  0  0
  138.6160  136.8610  156.7730 C   0  0  0  0  0  3  0  0  0  0  0  0
  139.7350  137.6730  156.5920 C   0  0  0  0  0  3  0  0  0  0  0  0
  139.9370  138.3360  155.3770 C   0  0  0  0  0  0  0  0  0  0  0  0
  139.0200  138.1870  154.3310 C   0  0  0  0  0  0  0  0  0  0  0  0
  137.8990  137.3650  154.5300 C   0  0  0  0  0  3  0  0  0  0  0  0
  141.0490  139.1230  155.2530 O   0  0  0  0  0  0  0  0  0  0  0  0
  141.0750  139.8000  154.6050 H   0  0  0  0  0  0  0  0  0  0  0  0
  139.0500  138.7550  153.0840 O   0  0  0  0  0  0  0  0  0  0  0  0
  139.8800  138.1570  152.0980 C   0  0  0  0  0  1  0  0  0  0  0  0
  1  2  2  0  0  0  0
  3  1  1  0  0  0  0
  3 12  1  0  0  0  0
  4  3  1  0  0  0  0
  5  1  1  0  0  0  0
  6  5  1  0  0  0  0
  7  6  1  0  0  0  0
  8  7  2  0  0  0  0
  9 11  1  0  0  0  0
  9  7  1  0  0  0  0
 10 11  1  0  0  0  0
 13 12  1  0  0  0  0
 13 14  1  0  0  0  0
 15 14  2  0  0  0  0
 16 15  1  0  0  0  0
 17 18  1  0  0  0  0
 17 16  2  0  0  0  0
 18 13  2  0  0  0  0
 19 16  1  0  0  0  0
 20 19  1  0  0  0  0
 21 17  1  0  0  0  0
 22 21  1  0  0  0  0
M  END
>  <MODEL>
2

>  <REMARK>
 VINA RESULT:    -5.728      7.399     10.598
 INTER + INTRA:          -9.137
 INTER:                  -8.351
 INTRA:                  -0.785
 UNBOUND:                -0.563
  Name = CHEMBL4228700
  11 active torsions:
  status: ('A' for Active; 'I' for Inactive)
    1  A    between atoms: C_1  and  C_2
    2  A    between atoms: C_2  and  C_3
    3  A    between atoms: C_3  and  C_4
    4  A    between atoms: C_4  and  O_6
    5  A    between atoms: O_6  and  C_7
    6  A    between atoms: C_7  and  C_8
    7  A    between atoms: N_10  and  C_11
    8  A    between atoms: C_11  and  C_12
    9  A    between atoms: C_15  and  O_16
   10  A    between atoms: C_17  and  O_18
   11  A    between atoms: O_18  and  C_19
                            x       y       z     vdW  Elec       q    Type
                         _______ _______ _______ _____ _____    ______ ____

>  <TORSDO>
F 9

>  <SCORE>
-5.728

>  <RMSD_LB>
7.399

>  <RMSD_UB>
10.598

$$$$
CHEMBL4228700
 OpenBabel10172500573D

 22 22  0  0  0  0  0  0  0  0999 V2000
  141.6080  138.1660  154.2850 C   0  0  0  0  0  0  0  0  0  0  0  0
  141.1410  138.1240  153.1490 O   0  0  0  0  0  0  0  0  0  0  0  0
  142.9640  138.1270  154.5510 N   0  0  0  0  0  0  0  0  0  0  0  0
  143.2680  138.1200  155.4880 H   0  0  0  0  0  0  0  0  0  0  0  0
  140.7220  138.2110  155.5360 C   0  0  0  0  0  2  0  0  0  0  0  0
  139.5300  138.9730  155.3560 O   0  0  0  0  0  0  0  0  0  0  0  0
  138.3900  138.2310  155.4480 C   0  0  0  0  0  0  0  0  0  0  0  0
  137.3150  138.5490  154.9610 O   0  0  0  0  0  0  0  0  0  0  0  0
  138.6310  137.0050  156.2950 C   0  0  0  0  0  2  0  0  0  0  0  0
  137.3830  137.6770  158.3870 C   0  0  0  0  0  1  0  0  0  0  0  0
  137.4350  136.7260  157.2030 C   0  0  0  0  0  2  0  0  0  0  0  0
  143.9470  138.0990  153.4910 C   0  0  0  0  0  2  0  0  0  0  0  0
  145.2090  138.8310  153.8630 C   0  0  0  0  0  0  0  0  0  0  0  0
  146.0870  138.2860  154.8060 C   0  0  0  0  0  3  0  0  0  0  0  0
  147.2550  138.9600  155.1610 C   0  0  0  0  0  3  0  0  0  0  0  0
  147.5660  140.1910  154.5720 C   0  0  0  0  0  0  0  0  0  0  0  0
  146.7110  140.7530  153.6190 C   0  0  0  0  0  0  0  0  0  0  0  0
  145.5400  140.0610  153.2720 C   0  0  0  0  0  3  0  0  0  0  0  0
  148.7220  140.8130  154.9580 O   0  0  0  0  0  0  0  0  0  0  0  0
  149.0260  140.7310  155.8410 H   0  0  0  0  0  0  0  0  0  0  0  0
  146.8480  141.9380  152.9440 O   0  0  0  0  0  0  0  0  0  0  0  0
  145.7730  142.3680  152.1220 C   0  0  0  0  0  1  0  0  0  0  0  0
  1  3  1  0  0  0  0
  1  5  1  0  0  0  0
  2  1  2  0  0  0  0
  3  4  1  0  0  0  0
  6  7  1  0  0  0  0
  6  5  1  0  0  0  0
  7  9  1  0  0  0  0
  8  7  2  0  0  0  0
  9 11  1  0  0  0  0
 11 10  1  0  0  0  0
 12 13  1  0  0  0  0
 12  3  1  0  0  0  0
 13 14  1  0  0  0  0
 14 15  2  0  0  0  0
 16 19  1  0  0  0  0
 16 15  1  0  0  0  0
 17 16  2  0  0  0  0
 18 17  1  0  0  0  0
 18 13  2  0  0  0  0
 19 20  1  0  0  0  0
 21 17  1  0  0  0  0
 22 21  1  0  0  0  0
M  END
>  <MODEL>
3

>  <REMARK>
 VINA RESULT:    -5.675      3.935      5.713
 INTER + INTRA:          -9.058
 INTER:                  -8.579
 INTRA:                  -0.478
 UNBOUND:                -0.563
  Name = CHEMBL4228700
  11 active torsions:
  status: ('A' for Active; 'I' for Inactive)
    1  A    between atoms: C_1  and  C_2
    2  A    between atoms: C_2  and  C_3
    3  A    between atoms: C_3  and  C_4
    4  A    between atoms: C_4  and  O_6
    5  A    between atoms: O_6  and  C_7
    6  A    between atoms: C_7  and  C_8
    7  A    between atoms: N_10  and  C_11
    8  A    between atoms: C_11  and  C_12
    9  A    between atoms: C_15  and  O_16
   10  A    between atoms: C_17  and  O_18
   11  A    between atoms: O_18  and  C_19
                            x       y       z     vdW  Elec       q    Type
                         _______ _______ _______ _____ _____    ______ ____

>  <TORSDO>
F 9

>  <SCORE>
-5.675

>  <RMSD_LB>
3.935

>  <RMSD_UB>
5.713

$$$$
CHEMBL4228700
 OpenBabel10172500573D

 22 22  0  0  0  0  0  0  0  0999 V2000
  134.8800  135.1560  152.8800 C   0  0  0  0  0  0  0  0  0  0  0  0
  134.4890  134.0570  153.2690 O   0  0  0  0  0  0  0  0  0  0  0  0
  134.2140  135.9070  151.9300 N   0  0  0  0  0  0  0  0  0  0  0  0
  134.6080  136.7580  151.6320 H   0  0  0  0  0  0  0  0  0  0  0  0
  136.1880  135.7840  153.3750 C   0  0  0  0  0  2  0  0  0  0  0  0
  136.5730  136.9410  152.6360 O   0  0  0  0  0  0  0  0  0  0  0  0
  137.8270  137.3870  152.9330 C   0  0  0  0  0  0  0  0  0  0  0  0
  138.2410  137.5880  154.0650 O   0  0  0  0  0  0  0  0  0  0  0  0
  138.5990  137.6610  151.6640 C   0  0  0  0  0  2  0  0  0  0  0  0
  137.8800  138.8760  149.5690 C   0  0  0  0  0  1  0  0  0  0  0  0
  137.6720  137.6570  150.4510 C   0  0  0  0  0  2  0  0  0  0  0  0
  132.9550  135.4760  151.3650 C   0  0  0  0  0  2  0  0  0  0  0  0
  133.1180  134.8850  149.9900 C   0  0  0  0  0  0  0  0  0  0  0  0
  133.1690  133.4970  149.8210 C   0  0  0  0  0  3  0  0  0  0  0  0
  133.3260  132.9420  148.5510 C   0  0  0  0  0  3  0  0  0  0  0  0
  133.4300  133.7690  147.4270 C   0  0  0  0  0  0  0  0  0  0  0  0
  133.3720  135.1600  147.5670 C   0  0  0  0  0  0  0  0  0  0  0  0
  133.2120  135.7020  148.8520 C   0  0  0  0  0  3  0  0  0  0  0  0
  133.5870  133.1740  146.2060 O   0  0  0  0  0  0  0  0  0  0  0  0
  134.4390  133.1140  145.8190 H   0  0  0  0  0  0  0  0  0  0  0  0
  133.4570  136.1180  146.5910 O   0  0  0  0  0  0  0  0  0  0  0  0
  132.7700  137.3440  146.7970 C   0  0  0  0  0  1  0  0  0  0  0  0
  1  2  2  0  0  0  0
  1  5  1  0  0  0  0
  3  1  1  0  0  0  0
  4  3  1  0  0  0  0
  6  7  1  0  0  0  0
  6  5  1  0  0  0  0
  7  8  2  0  0  0  0
  9  7  1  0  0  0  0
 10 11  1  0  0  0  0
 11  9  1  0  0  0  0
 12  3  1  0  0  0  0
 13 12  1  0  0  0  0
 14 13  1  0  0  0  0
 15 14  2  0  0  0  0
 16 17  2  0  0  0  0
 16 15  1  0  0  0  0
 17 18  1  0  0  0  0
 18 13  2  0  0  0  0
 19 16  1  0  0  0  0
 20 19  1  0  0  0  0
 21 22  1  0  0  0  0
 21 17  1  0  0  0  0
M  END
>  <MODEL>
4

>  <REMARK>
 VINA RESULT:    -5.617      8.737     13.532
 INTER + INTRA:          -8.972
 INTER:                  -8.309
 INTRA:                  -0.663
 UNBOUND:                -0.563
  Name = CHEMBL4228700
  11 active torsions:
  status: ('A' for Active; 'I' for Inactive)
    1  A    between atoms: C_1  and  C_2
    2  A    between atoms: C_2  and  C_3
    3  A    between atoms: C_3  and  C_4
    4  A    between atoms: C_4  and  O_6
    5  A    between atoms: O_6  and  C_7
    6  A    between atoms: C_7  and  C_8
    7  A    between atoms: N_10  and  C_11
    8  A    between atoms: C_11  and  C_12
    9  A    between atoms: C_15  and  O_16
   10  A    between atoms: C_17  and  O_18
   11  A    between atoms: O_18  and  C_19
                            x       y       z     vdW  Elec       q    Type
                         _______ _______ _______ _____ _____    ______ ____

>  <TORSDO>
F 9

>  <SCORE>
-5.617

>  <RMSD_LB>
8.737

>  <RMSD_UB>
13.532

$$$$
CHEMBL4228700
 OpenBabel10172500573D

 22 22  0  0  0  0  0  0  0  0999 V2000
  145.2470  140.5540  148.9920 C   0  0  0  0  0  0  0  0  0  0  0  0
  144.2790  140.6230  149.7460 O   0  0  0  0  0  0  0  0  0  0  0  0
  146.2730  141.4800  148.9850 N   0  0  0  0  0  0  0  0  0  0  0  0
  146.9960  141.3890  148.3230 H   0  0  0  0  0  0  0  0  0  0  0  0
  145.3870  139.4520  147.9350 C   0  0  0  0  0  2  0  0  0  0  0  0
  145.0770  138.1510  148.4310 O   0  0  0  0  0  0  0  0  0  0  0  0
  146.1430  137.5130  148.9920 C   0  0  0  0  0  0  0  0  0  0  0  0
  147.1840  137.2550  148.4070 O   0  0  0  0  0  0  0  0  0  0  0  0
  145.8230  137.1120  150.4130 C   0  0  0  0  0  2  0  0  0  0  0  0
  147.5380  138.0780  151.9970 C   0  0  0  0  0  1  0  0  0  0  0  0
  147.1010  136.8550  151.2080 C   0  0  0  0  0  2  0  0  0  0  0  0
  146.3130  142.5780  149.9250 C   0  0  0  0  0  2  0  0  0  0  0  0
  146.9490  142.1880  151.2330 C   0  0  0  0  0  0  0  0  0  0  0  0
  148.3410  142.2110  151.3730 C   0  0  0  0  0  3  0  0  0  0  0  0
  148.9380  141.8450  152.5790 C   0  0  0  0  0  3  0  0  0  0  0  0
  148.1510  141.4540  153.6670 C   0  0  0  0  0  0  0  0  0  0  0  0
  146.7570  141.4320  153.5570 C   0  0  0  0  0  0  0  0  0  0  0  0
  146.1710  141.8050  152.3360 C   0  0  0  0  0  3  0  0  0  0  0  0
  148.7870  141.1010  154.8250 O   0  0  0  0  0  0  0  0  0  0  0  0
  148.7400  141.6600  155.5760 H   0  0  0  0  0  0  0  0  0  0  0  0
  145.8320  141.0790  154.5050 O   0  0  0  0  0  0  0  0  0  0  0  0
  145.3590  139.7400  154.5110 C   0  0  0  0  0  1  0  0  0  0  0  0
  1  2  2  0  0  0  0
  3  1  1  0  0  0  0
  3 12  1  0  0  0  0
  4  3  1  0  0  0  0
  5  6  1  0  0  0  0
  5  1  1  0  0  0  0
  6  7  1  0  0  0  0
  7  9  1  0  0  0  0
  8  7  2  0  0  0  0
  9 11  1  0  0  0  0
 11 10  1  0  0  0  0
 12 13  1  0  0  0  0
 13 14  2  0  0  0  0
 13 18  1  0  0  0  0
 14 15  1  0  0  0  0
 15 16  2  0  0  0  0
 16 19  1  0  0  0  0
 17 16  1  0  0  0  0
 17 21  1  0  0  0  0
 18 17  2  0  0  0  0
 19 20  1  0  0  0  0
 21 22  1  0  0  0  0
M  END
>  <MODEL>
5

>  <REMARK>
 VINA RESULT:    -5.589      2.003      2.638
 INTER + INTRA:          -8.930
 INTER:                  -7.921
 INTRA:                  -1.009
 UNBOUND:                -0.563
  Name = CHEMBL4228700
  11 active torsions:
  status: ('A' for Active; 'I' for Inactive)
    1  A    between atoms: C_1  and  C_2
    2  A    between atoms: C_2  and  C_3
    3  A    between atoms: C_3  and  C_4
    4  A    between atoms: C_4  and  O_6
    5  A    between atoms: O_6  and  C_7
    6  A    between atoms: C_7  and  C_8
    7  A    between atoms: N_10  and  C_11
    8  A    between atoms: C_11  and  C_12
    9  A    between atoms: C_15  and  O_16
   10  A    between atoms: C_17  and  O_18
   11  A    between atoms: O_18  and  C_19
                            x       y       z     vdW  Elec       q    Type
                         _______ _______ _______ _____ _____    ______ ____

>  <TORSDO>
F 9

>  <SCORE>
-5.589

>  <RMSD_LB>
2.003

>  <RMSD_UB>
2.638

$$$$
CHEMBL4228700
 OpenBabel10172500573D

 22 22  0  0  0  0  0  0  0  0999 V2000
  143.3070  138.4070  149.2730 C   0  0  0  0  0  0  0  0  0  0  0  0
  142.3780  138.6510  148.5060 O   0  0  0  0  0  0  0  0  0  0  0  0
  143.2070  137.5220  150.3300 N   0  0  0  0  0  0  0  0  0  0  0  0
  143.9770  137.4070  150.9320 H   0  0  0  0  0  0  0  0  0  0  0  0
  144.6660  139.1090  149.1670 C   0  0  0  0  0  2  0  0  0  0  0  0
  144.6420  140.4580  149.6290 O   0  0  0  0  0  0  0  0  0  0  0  0
  145.0470  140.5990  150.9230 C   0  0  0  0  0  0  0  0  0  0  0  0
  145.1520  139.6800  151.7210 O   0  0  0  0  0  0  0  0  0  0  0  0
  145.2760  142.0570  151.2420 C   0  0  0  0  0  2  0  0  0  0  0  0
  147.7890  142.1110  150.9820 C   0  0  0  0  0  1  0  0  0  0  0  0
  146.4570  142.6100  150.4470 C   0  0  0  0  0  2  0  0  0  0  0  0
  142.0020  136.7580  150.5720 C   0  0  0  0  0  2  0  0  0  0  0  0
  141.0810  137.4400  151.5480 C   0  0  0  0  0  0  0  0  0  0  0  0
  139.7070  137.5070  151.2900 C   0  0  0  0  0  3  0  0  0  0  0  0
  138.8480  138.1420  152.1860 C   0  0  0  0  0  3  0  0  0  0  0  0
  139.3490  138.7170  153.3600 C   0  0  0  0  0  0  0  0  0  0  0  0
  140.7170  138.6540  153.6470 C   0  0  0  0  0  0  0  0  0  0  0  0
  141.5680  138.0100  152.7340 C   0  0  0  0  0  3  0  0  0  0  0  0
  138.4640  139.3310  154.2020 O   0  0  0  0  0  0  0  0  0  0  0  0
  138.7640  139.9840  154.8030 H   0  0  0  0  0  0  0  0  0  0  0  0
  141.3830  139.1560  154.7340 O   0  0  0  0  0  0  0  0  0  0  0  0
  142.7970  139.2730  154.6560 C   0  0  0  0  0  1  0  0  0  0  0  0
  1  3  1  0  0  0  0
  2  1  2  0  0  0  0
  3 12  1  0  0  0  0
  3  4  1  0  0  0  0
  5  1  1  0  0  0  0
  5  6  1  0  0  0  0
  6  7  1  0  0  0  0
  7  9  1  0  0  0  0
  7  8  2  0  0  0  0
 11 10  1  0  0  0  0
 11  9  1  0  0  0  0
 12 13  1  0  0  0  0
 13 18  1  0  0  0  0
 14 13  2  0  0  0  0
 14 15  1  0  0  0  0
 15 16  2  0  0  0  0
 16 17  1  0  0  0  0
 16 19  1  0  0  0  0
 17 21  1  0  0  0  0
 18 17  2  0  0  0  0
 19 20  1  0  0  0  0
 22 21  1  0  0  0  0
M  END
>  <MODEL>
6

>  <REMARK>
 VINA RESULT:    -5.568      2.444      6.639
 INTER + INTRA:          -8.897
 INTER:                  -8.059
 INTRA:                  -0.838
 UNBOUND:                -0.563
  Name = CHEMBL4228700
  11 active torsions:
  status: ('A' for Active; 'I' for Inactive)
    1  A    between atoms: C_1  and  C_2
    2  A    between atoms: C_2  and  C_3
    3  A    between atoms: C_3  and  C_4
    4  A    between atoms: C_4  and  O_6
    5  A    between atoms: O_6  and  C_7
    6  A    between atoms: C_7  and  C_8
    7  A    between atoms: N_10  and  C_11
    8  A    between atoms: C_11  and  C_12
    9  A    between atoms: C_15  and  O_16
   10  A    between atoms: C_17  and  O_18
   11  A    between atoms: O_18  and  C_19
                            x       y       z     vdW  Elec       q    Type
                         _______ _______ _______ _____ _____    ______ ____

>  <TORSDO>
F 9

>  <SCORE>
-5.568

>  <RMSD_LB>
2.444

>  <RMSD_UB>
6.639

$$$$
CHEMBL4228700
 OpenBabel10172500573D

 22 22  0  0  0  0  0  0  0  0999 V2000
  137.3820  136.7010  149.9140 C   0  0  0  0  0  0  0  0  0  0  0  0
  137.0140  137.7200  149.3330 O   0  0  0  0  0  0  0  0  0  0  0  0
  138.6480  136.5430  150.4440 N   0  0  0  0  0  0  0  0  0  0  0  0
  138.8900  135.6840  150.8580 H   0  0  0  0  0  0  0  0  0  0  0  0
  136.4800  135.4700  150.0620 C   0  0  0  0  0  2  0  0  0  0  0  0
  135.1260  135.7140  149.6870 O   0  0  0  0  0  0  0  0  0  0  0  0
  134.2220  135.3720  150.6490 C   0  0  0  0  0  0  0  0  0  0  0  0
  133.7640  136.1460  151.4760 O   0  0  0  0  0  0  0  0  0  0  0  0
  133.9280  133.8920  150.5870 C   0  0  0  0  0  2  0  0  0  0  0  0
  132.6550  133.6130  148.4220 C   0  0  0  0  0  1  0  0  0  0  0  0
  132.5690  133.6340  149.9390 C   0  0  0  0  0  2  0  0  0  0  0  0
  139.6250  137.6090  150.4100 C   0  0  0  0  0  2  0  0  0  0  0  0
  140.2760  137.8310  151.7500 C   0  0  0  0  0  0  0  0  0  0  0  0
  141.6300  137.5320  151.9330 C   0  0  0  0  0  3  0  0  0  0  0  0
  142.2380  137.7280  153.1730 C   0  0  0  0  0  3  0  0  0  0  0  0
  141.5000  138.2340  154.2490 C   0  0  0  0  0  0  0  0  0  0  0  0
  140.1470  138.5520  154.0890 C   0  0  0  0  0  0  0  0  0  0  0  0
  139.5510  138.3490  152.8340 C   0  0  0  0  0  3  0  0  0  0  0  0
  142.1440  138.4050  155.4440 O   0  0  0  0  0  0  0  0  0  0  0  0
  142.7730  139.0920  155.5440 H   0  0  0  0  0  0  0  0  0  0  0  0
  139.2740  139.0500  155.0200 O   0  0  0  0  0  0  0  0  0  0  0  0
  137.9530  138.5280  155.0440 C   0  0  0  0  0  1  0  0  0  0  0  0
  1  5  1  0  0  0  0
  1  3  1  0  0  0  0
  2  1  2  0  0  0  0
  3  4  1  0  0  0  0
  6  5  1  0  0  0  0
  6  7  1  0  0  0  0
  7  8  2  0  0  0  0
  9  7  1  0  0  0  0
 10 11  1  0  0  0  0
 11  9  1  0  0  0  0
 12  3  1  0  0  0  0
 12 13  1  0  0  0  0
 13 14  2  0  0  0  0
 13 18  1  0  0  0  0
 14 15  1  0  0  0  0
 15 16  2  0  0  0  0
 16 19  1  0  0  0  0
 17 16  1  0  0  0  0
 17 21  1  0  0  0  0
 18 17  2  0  0  0  0
 19 20  1  0  0  0  0
 21 22  1  0  0  0  0
M  END
>  <MODEL>
7

>  <REMARK>
 VINA RESULT:    -5.396      6.056      8.800
 INTER + INTRA:          -8.641
 INTER:                  -8.172
 INTRA:                  -0.469
 UNBOUND:                -0.563
  Name = CHEMBL4228700
  11 active torsions:
  status: ('A' for Active; 'I' for Inactive)
    1  A    between atoms: C_1  and  C_2
    2  A    between atoms: C_2  and  C_3
    3  A    between atoms: C_3  and  C_4
    4  A    between atoms: C_4  and  O_6
    5  A    between atoms: O_6  and  C_7
    6  A    between atoms: C_7  and  C_8
    7  A    between atoms: N_10  and  C_11
    8  A    between atoms: C_11  and  C_12
    9  A    between atoms: C_15  and  O_16
   10  A    between atoms: C_17  and  O_18
   11  A    between atoms: O_18  and  C_19
                            x       y       z     vdW  Elec       q    Type
                         _______ _______ _______ _____ _____    ______ ____

>  <TORSDO>
F 9

>  <SCORE>
-5.396

>  <RMSD_LB>
6.056

>  <RMSD_UB>
8.800

$$$$
CHEMBL4228700
 OpenBabel10172500573D

 22 22  0  0  0  0  0  0  0  0999 V2000
  137.5970  134.1710  146.7460 C   0  0  0  0  0  0  0  0  0  0  0  0
  138.0200  133.2160  147.3940 O   0  0  0  0  0  0  0  0  0  0  0  0
  136.3040  134.2480  146.2630 N   0  0  0  0  0  0  0  0  0  0  0  0
  136.0450  135.0210  145.7120 H   0  0  0  0  0  0  0  0  0  0  0  0
  138.4860  135.3580  146.3570 C   0  0  0  0  0  2  0  0  0  0  0  0
  138.7930  136.2150  147.4540 O   0  0  0  0  0  0  0  0  0  0  0  0
  137.6990  136.5970  148.1730 C   0  0  0  0  0  0  0  0  0  0  0  0
  136.7520  137.2190  147.7160 O   0  0  0  0  0  0  0  0  0  0  0  0
  137.8610  136.2010  149.6210 C   0  0  0  0  0  2  0  0  0  0  0  0
  136.3750  134.8580  151.1600 C   0  0  0  0  0  1  0  0  0  0  0  0
  136.5050  136.1160  150.3180 C   0  0  0  0  0  2  0  0  0  0  0  0
  135.3240  133.2240  146.5470 C   0  0  0  0  0  2  0  0  0  0  0  0
  134.4780  133.5600  147.7470 C   0  0  0  0  0  0  0  0  0  0  0  0
  134.2280  132.5920  148.7250 C   0  0  0  0  0  3  0  0  0  0  0  0
  133.4410  132.8940  149.8360 C   0  0  0  0  0  3  0  0  0  0  0  0
  132.8960  134.1730  149.9900 C   0  0  0  0  0  0  0  0  0  0  0  0
  133.1400  135.1630  149.0320 C   0  0  0  0  0  0  0  0  0  0  0  0
  133.9360  134.8430  147.9190 C   0  0  0  0  0  3  0  0  0  0  0  0
  132.1290  134.4160  151.0960 O   0  0  0  0  0  0  0  0  0  0  0  0
  131.8360  133.7030  151.6290 H   0  0  0  0  0  0  0  0  0  0  0  0
  132.6940  136.4590  149.0120 O   0  0  0  0  0  0  0  0  0  0  0  0
  132.5560  137.0990  147.7520 C   0  0  0  0  0  1  0  0  0  0  0  0
  1  2  2  0  0  0  0
  3 12  1  0  0  0  0
  3  1  1  0  0  0  0
  4  3  1  0  0  0  0
  5  1  1  0  0  0  0
  5  6  1  0  0  0  0
  6  7  1  0  0  0  0
  7  9  1  0  0  0  0
  8  7  2  0  0  0  0
  9 11  1  0  0  0  0
 11 10  1  0  0  0  0
 12 13  1  0  0  0  0
 13 18  2  0  0  0  0
 13 14  1  0  0  0  0
 14 15  2  0  0  0  0
 15 16  1  0  0  0  0
 16 19  1  0  0  0  0
 17 16  2  0  0  0  0
 18 17  1  0  0  0  0
 19 20  1  0  0  0  0
 21 17  1  0  0  0  0
 22 21  1  0  0  0  0
M  END
>  <MODEL>
8

>  <REMARK>
 VINA RESULT:    -5.334      9.798     12.978
 INTER + INTRA:          -8.547
 INTER:                  -7.277
 INTRA:                  -1.270
 UNBOUND:                -0.563
  Name = CHEMBL4228700
  11 active torsions:
  status: ('A' for Active; 'I' for Inactive)
    1  A    between atoms: C_1  and  C_2
    2  A    between atoms: C_2  and  C_3
    3  A    between atoms: C_3  and  C_4
    4  A    between atoms: C_4  and  O_6
    5  A    between atoms: O_6  and  C_7
    6  A    between atoms: C_7  and  C_8
    7  A    between atoms: N_10  and  C_11
    8  A    between atoms: C_11  and  C_12
    9  A    between atoms: C_15  and  O_16
   10  A    between atoms: C_17  and  O_18
   11  A    between atoms: O_18  and  C_19
                            x       y       z     vdW  Elec       q    Type
                         _______ _______ _______ _____ _____    ______ ____

>  <TORSDO>
F 9

>  <SCORE>
-5.334

>  <RMSD_LB>
9.798

>  <RMSD_UB>
12.978

$$$$
CHEMBL4228700
 OpenBabel10172500573D

 22 22  0  0  0  0  0  0  0  0999 V2000
  136.0970  135.5910  151.1190 C   0  0  0  0  0  0  0  0  0  0  0  0
  135.9420  134.3810  150.9670 O   0  0  0  0  0  0  0  0  0  0  0  0
  136.0830  136.2100  152.3540 N   0  0  0  0  0  0  0  0  0  0  0  0
  136.1690  137.1890  152.4000 H   0  0  0  0  0  0  0  0  0  0  0  0
  136.2700  136.5510  149.9360 C   0  0  0  0  0  2  0  0  0  0  0  0
  136.3380  135.8870  148.6760 O   0  0  0  0  0  0  0  0  0  0  0  0
  135.4040  136.3180  147.7800 C   0  0  0  0  0  0  0  0  0  0  0  0
  135.6030  137.1670  146.9250 O   0  0  0  0  0  0  0  0  0  0  0  0
  134.0770  135.6460  148.0460 C   0  0  0  0  0  2  0  0  0  0  0  0
  132.5760  136.9930  149.5670 C   0  0  0  0  0  1  0  0  0  0  0  0
  132.9520  136.6750  148.1300 C   0  0  0  0  0  2  0  0  0  0  0  0
  135.9460  135.4560  153.5810 C   0  0  0  0  0  2  0  0  0  0  0  0
  136.5380  136.1780  154.7630 C   0  0  0  0  0  0  0  0  0  0  0  0
  136.2020  135.7900  156.0640 C   0  0  0  0  0  3  0  0  0  0  0  0
  136.7400  136.4580  157.1640 C   0  0  0  0  0  3  0  0  0  0  0  0
  137.6300  137.5220  156.9790 C   0  0  0  0  0  0  0  0  0  0  0  0
  137.9910  137.9220  155.6880 C   0  0  0  0  0  0  0  0  0  0  0  0
  137.4410  137.2390  154.5910 C   0  0  0  0  0  3  0  0  0  0  0  0
  138.1260  138.1440  158.0910 O   0  0  0  0  0  0  0  0  0  0  0  0
  138.2270  137.6670  158.8910 H   0  0  0  0  0  0  0  0  0  0  0  0
  138.8380  138.9330  155.3150 O   0  0  0  0  0  0  0  0  0  0  0  0
  140.1180  138.5800  154.8100 C   0  0  0  0  0  1  0  0  0  0  0  0
  1  3  1  0  0  0  0
  2  1  2  0  0  0  0
  3  4  1  0  0  0  0
  3 12  1  0  0  0  0
  5  1  1  0  0  0  0
  6  5  1  0  0  0  0
  7  9  1  0  0  0  0
  7  6  1  0  0  0  0
  8  7  2  0  0  0  0
  9 11  1  0  0  0  0
 11 10  1  0  0  0  0
 12 13  1  0  0  0  0
 13 14  1  0  0  0  0
 14 15  2  0  0  0  0
 16 15  1  0  0  0  0
 16 19  1  0  0  0  0
 17 16  2  0  0  0  0
 18 13  2  0  0  0  0
 18 17  1  0  0  0  0
 19 20  1  0  0  0  0
 21 17  1  0  0  0  0
 22 21  1  0  0  0  0
M  END
>  <MODEL>
9

>  <REMARK>
 VINA RESULT:    -5.308      8.024     10.770
 INTER + INTRA:          -8.508
 INTER:                  -7.945
 INTRA:                  -0.563
 UNBOUND:                -0.563
  Name = CHEMBL4228700
  11 active torsions:
  status: ('A' for Active; 'I' for Inactive)
    1  A    between atoms: C_1  and  C_2
    2  A    between atoms: C_2  and  C_3
    3  A    between atoms: C_3  and  C_4
    4  A    between atoms: C_4  and  O_6
    5  A    between atoms: O_6  and  C_7
    6  A    between atoms: C_7  and  C_8
    7  A    between atoms: N_10  and  C_11
    8  A    between atoms: C_11  and  C_12
    9  A    between atoms: C_15  and  O_16
   10  A    between atoms: C_17  and  O_18
   11  A    between atoms: O_18  and  C_19
                            x       y       z     vdW  Elec       q    Type
                         _______ _______ _______ _____ _____    ______ ____

>  <TORSDO>
F 9

>  <SCORE>
-5.308

>  <RMSD_LB>
8.024

>  <RMSD_UB>
10.770

$$$$
