CHEMBL4646487
 OpenBabel10172500213D

 31 32  0  0  1  0  0  0  0  0999 V2000
  143.4340  138.1050  148.3760 C   0  0  1  0  0  3  0  0  0  0  0  0
  144.7540  138.0820  147.8330 O   0  0  0  0  0  0  0  0  0  0  0  0
  144.7070  137.9500  146.8730 H   0  0  0  0  0  0  0  0  0  0  0  0
  143.2880  137.2180  149.6100 C   0  0  0  0  0  2  0  0  0  0  0  0
  144.4610  136.2880  149.8260 C   0  0  0  0  0  0  0  0  0  0  0  0
  144.7430  135.4370  148.9790 O   0  0  0  0  0  0  0  0  0  0  0  0
  145.3000  136.4460  151.0830 C   0  0  0  0  0  2  0  0  0  0  0  0
  144.5550  137.1570  152.2120 C   0  0  0  0  0  2  0  0  0  0  0  0
  147.6860  137.5560  154.3660 C   0  0  0  0  0  0  0  0  0  0  0  0
  146.8160  137.1430  153.3520 C   0  0  0  0  0  3  0  0  0  0  0  0
  145.4970  137.6310  153.2930 C   0  0  0  0  0  0  0  0  0  0  0  0
  145.0590  138.5390  154.2680 C   0  0  0  0  0  3  0  0  0  0  0  0
  145.9210  138.9530  155.2820 C   0  0  0  0  0  3  0  0  0  0  0  0
  147.2200  138.4620  155.3270 C   0  0  0  0  0  0  0  0  0  0  0  0
  149.8620  137.3340  153.4080 C   0  0  0  0  0  1  0  0  0  0  0  0
  148.9890  137.1390  154.5060 O   0  0  0  0  0  0  0  0  0  0  0  0
  148.0650  138.8660  156.3310 O   0  0  0  0  0  0  0  0  0  0  0  0
  147.7870  138.8200  157.2250 H   0  0  0  0  0  0  0  0  0  0  0  0
  143.0060  139.5570  148.6410 C   0  0  0  0  0  2  0  0  0  0  0  0
  143.4480  140.0830  150.0020 C   0  0  0  0  0  0  0  0  0  0  0  0
  142.8550  139.7870  151.0400 O   0  0  0  0  0  0  0  0  0  0  0  0
  144.7070  140.9160  150.0620 C   0  0  0  0  0  2  0  0  0  0  0  0
  145.9250  140.0820  150.4210 C   0  0  0  0  0  2  0  0  0  0  0  0
  146.6420  140.6540  151.6160 C   0  0  0  0  0  0  0  0  0  0  0  0
  146.0050  141.5930  152.4390 C   0  0  0  0  0  3  0  0  0  0  0  0
  146.6660  142.1320  153.5470 C   0  0  0  0  0  3  0  0  0  0  0  0
  147.9720  141.7330  153.8200 C   0  0  0  0  0  0  0  0  0  0  0  0
  148.6230  140.8160  153.0040 C   0  0  0  0  0  3  0  0  0  0  0  0
  147.9620  140.2780  151.9000 C   0  0  0  0  0  3  0  0  0  0  0  0
  148.6520  142.2260  154.8920 O   0  0  0  0  0  0  0  0  0  0  0  0
  148.7590  143.1520  154.9940 H   0  0  0  0  0  0  0  0  0  0  0  0
  1 19  1  1  0  0  0
  1  4  1  0  0  0  0
  2  1  1  0  0  0  0
  3  2  1  0  0  0  0
  4  5  1  0  0  0  0
  5  7  1  0  0  0  0
  6  5  2  0  0  0  0
  7  8  1  0  0  0  0
  8 11  1  0  0  0  0
  9 16  1  0  0  0  0
  9 14  1  0  0  0  0
 10  9  2  0  0  0  0
 11 10  1  0  0  0  0
 11 12  2  0  0  0  0
 12 13  1  0  0  0  0
 13 14  2  0  0  0  0
 14 17  1  0  0  0  0
 15 16  1  0  0  0  0
 17 18  1  0  0  0  0
 19 20  1  0  0  0  0
 20 22  1  0  0  0  0
 20 21  2  0  0  0  0
 22 23  1  0  0  0  0
 23 24  1  0  0  0  0
 24 29  2  0  0  0  0
 24 25  1  0  0  0  0
 25 26  2  0  0  0  0
 26 27  1  0  0  0  0
 27 30  1  0  0  0  0
 28 27  2  0  0  0  0
 29 28  1  0  0  0  0
 30 31  1  0  0  0  0
M  END
>  <MODEL>
1

>  <REMARK>
 VINA RESULT:    -6.730      0.000      0.000
 INTER + INTRA:         -14.202
 INTER:                 -10.759
 INTRA:                  -3.443
 UNBOUND:                -2.555
  Name = CHEMBL4646487
  15 active torsions:
  status: ('A' for Active; 'I' for Inactive)
    1  A    between atoms: C_1  and  O_2
    2  A    between atoms: O_2  and  C_3
    3  A    between atoms: C_5  and  C_6
    4  A    between atoms: C_6  and  C_7
    5  A    between atoms: C_7  and  C_8
    6  A    between atoms: C_8  and  C_10
    7  A    between atoms: C_10  and  C_11
    8  A    between atoms: C_11  and  O_12
    9  A    between atoms: C_11  and  C_13
   10  A    between atoms: C_13  and  C_14
   11  A    between atoms: C_14  and  C_16
   12  A    between atoms: C_16  and  C_17
   13  A    between atoms: C_17  and  C_18
   14  A    between atoms: C_21  and  O_22
   15  A    between atoms: C_27  and  O_28
                            x       y       z     vdW  Elec       q    Type
                         _______ _______ _______ _____ _____    ______ ____

>  <TORSDO>
F 14

>  <SCORE>
-6.730

>  <RMSD_LB>
0.000

>  <RMSD_UB>
0.000

$$$$
CHEMBL4646487
 OpenBabel10172500213D

 31 32  0  0  1  0  0  0  0  0999 V2000
  144.8900  138.7170  147.8910 C   0  0  1  0  0  3  0  0  0  0  0  0
  143.8260  139.3620  147.1910 O   0  0  0  0  0  0  0  0  0  0  0  0
  143.9130  140.3240  147.2860 H   0  0  0  0  0  0  0  0  0  0  0  0
  144.8840  137.2010  147.7080 C   0  0  0  0  0  2  0  0  0  0  0  0
  145.3380  136.4440  148.9360 C   0  0  0  0  0  0  0  0  0  0  0  0
  146.1270  135.5010  148.8280 O   0  0  0  0  0  0  0  0  0  0  0  0
  144.8350  136.8890  150.2980 C   0  0  0  0  0  2  0  0  0  0  0  0
  143.3520  136.5920  150.5130 C   0  0  0  0  0  2  0  0  0  0  0  0
  143.1010  138.8930  153.5540 C   0  0  0  0  0  0  0  0  0  0  0  0
  143.6230  138.1610  152.4830 C   0  0  0  0  0  3  0  0  0  0  0  0
  142.7770  137.4030  151.6510 C   0  0  0  0  0  0  0  0  0  0  0  0
  141.3990  137.3850  151.9100 C   0  0  0  0  0  3  0  0  0  0  0  0
  140.8740  138.1110  152.9780 C   0  0  0  0  0  3  0  0  0  0  0  0
  141.7210  138.8540  153.7890 C   0  0  0  0  0  0  0  0  0  0  0  0
  145.0950  139.1520  154.8440 C   0  0  0  0  0  1  0  0  0  0  0  0
  143.8440  139.6630  154.4190 O   0  0  0  0  0  0  0  0  0  0  0  0
  141.2030  139.5630  154.8450 O   0  0  0  0  0  0  0  0  0  0  0  0
  140.3130  139.4300  155.1070 H   0  0  0  0  0  0  0  0  0  0  0  0
  146.2330  139.3510  147.4960 C   0  0  0  0  0  2  0  0  0  0  0  0
  146.3290  140.8340  147.8360 C   0  0  0  0  0  0  0  0  0  0  0  0
  146.7030  141.6700  147.0110 O   0  0  0  0  0  0  0  0  0  0  0  0
  145.8610  141.2780  149.2020 C   0  0  0  0  0  2  0  0  0  0  0  0
  146.6330  142.4870  149.7020 C   0  0  0  0  0  2  0  0  0  0  0  0
  147.1020  142.2850  151.1200 C   0  0  0  0  0  0  0  0  0  0  0  0
  148.4590  142.0610  151.3900 C   0  0  0  0  0  3  0  0  0  0  0  0
  148.9010  141.8690  152.7020 C   0  0  0  0  0  3  0  0  0  0  0  0
  147.9740  141.8900  153.7410 C   0  0  0  0  0  0  0  0  0  0  0  0
  146.6240  142.0930  153.4890 C   0  0  0  0  0  3  0  0  0  0  0  0
  146.1840  142.2870  152.1790 C   0  0  0  0  0  3  0  0  0  0  0  0
  148.3600  141.7140  155.0360 O   0  0  0  0  0  0  0  0  0  0  0  0
  147.7450  141.4020  155.6700 H   0  0  0  0  0  0  0  0  0  0  0  0
  1 19  1  6  0  0  0
  2  3  1  0  0  0  0
  2  1  1  0  0  0  0
  4  1  1  0  0  0  0
  4  5  1  0  0  0  0
  5  7  1  0  0  0  0
  6  5  2  0  0  0  0
  7  8  1  0  0  0  0
  8 11  1  0  0  0  0
  9 14  1  0  0  0  0
  9 16  1  0  0  0  0
 10  9  2  0  0  0  0
 11 12  2  0  0  0  0
 11 10  1  0  0  0  0
 12 13  1  0  0  0  0
 13 14  2  0  0  0  0
 14 17  1  0  0  0  0
 16 15  1  0  0  0  0
 17 18  1  0  0  0  0
 19 20  1  0  0  0  0
 20 22  1  0  0  0  0
 21 20  2  0  0  0  0
 22 23  1  0  0  0  0
 23 24  1  0  0  0  0
 24 25  2  0  0  0  0
 24 29  1  0  0  0  0
 25 26  1  0  0  0  0
 26 27  2  0  0  0  0
 27 30  1  0  0  0  0
 28 27  1  0  0  0  0
 29 28  2  0  0  0  0
 30 31  1  0  0  0  0
M  END
>  <MODEL>
2

>  <REMARK>
 VINA RESULT:    -6.686      2.250      3.588
 INTER + INTRA:         -14.127
 INTER:                 -12.646
 INTRA:                  -1.481
 UNBOUND:                -2.555
  Name = CHEMBL4646487
  15 active torsions:
  status: ('A' for Active; 'I' for Inactive)
    1  A    between atoms: C_1  and  O_2
    2  A    between atoms: O_2  and  C_3
    3  A    between atoms: C_5  and  C_6
    4  A    between atoms: C_6  and  C_7
    5  A    between atoms: C_7  and  C_8
    6  A    between atoms: C_8  and  C_10
    7  A    between atoms: C_10  and  C_11
    8  A    between atoms: C_11  and  O_12
    9  A    between atoms: C_11  and  C_13
   10  A    between atoms: C_13  and  C_14
   11  A    between atoms: C_14  and  C_16
   12  A    between atoms: C_16  and  C_17
   13  A    between atoms: C_17  and  C_18
   14  A    between atoms: C_21  and  O_22
   15  A    between atoms: C_27  and  O_28
                            x       y       z     vdW  Elec       q    Type
                         _______ _______ _______ _____ _____    ______ ____

>  <TORSDO>
F 14

>  <SCORE>
-6.686

>  <RMSD_LB>
2.250

>  <RMSD_UB>
3.588

$$$$
CHEMBL4646487
 OpenBabel10172500213D

 31 32  0  0  1  0  0  0  0  0999 V2000
  144.5680  138.6910  147.4380 C   0  0  1  0  0  3  0  0  0  0  0  0
  143.4850  139.6140  147.5490 O   0  0  0  0  0  0  0  0  0  0  0  0
  143.2880  139.7710  148.4860 H   0  0  0  0  0  0  0  0  0  0  0  0
  144.1760  137.4040  146.7150 C   0  0  0  0  0  2  0  0  0  0  0  0
  144.5190  136.1500  147.4890 C   0  0  0  0  0  0  0  0  0  0  0  0
  144.5580  135.0580  146.9170 O   0  0  0  0  0  0  0  0  0  0  0  0
  144.8470  136.2690  148.9680 C   0  0  0  0  0  2  0  0  0  0  0  0
  143.6210  136.1180  149.8660 C   0  0  0  0  0  2  0  0  0  0  0  0
  142.4810  138.2610  152.8170 C   0  0  0  0  0  0  0  0  0  0  0  0
  142.4780  137.3320  151.7730 C   0  0  0  0  0  3  0  0  0  0  0  0
  143.6400  137.1020  151.0110 C   0  0  0  0  0  0  0  0  0  0  0  0
  144.8060  137.8220  151.3080 C   0  0  0  0  0  3  0  0  0  0  0  0
  144.8140  138.7520  152.3470 C   0  0  0  0  0  3  0  0  0  0  0  0
  143.6600  138.9670  153.0890 C   0  0  0  0  0  0  0  0  0  0  0  0
  140.1180  138.5540  153.0130 C   0  0  0  0  0  1  0  0  0  0  0  0
  141.4000  138.5530  153.6170 O   0  0  0  0  0  0  0  0  0  0  0  0
  143.6680  139.8880  154.1070 O   0  0  0  0  0  0  0  0  0  0  0  0
  142.8600  140.2040  154.4610 H   0  0  0  0  0  0  0  0  0  0  0  0
  145.7770  139.3830  146.7910 C   0  0  0  0  0  2  0  0  0  0  0  0
  146.2780  140.5910  147.5730 C   0  0  0  0  0  0  0  0  0  0  0  0
  146.4950  141.6760  147.0310 O   0  0  0  0  0  0  0  0  0  0  0  0
  146.4190  140.4540  149.0710 C   0  0  0  0  0  2  0  0  0  0  0  0
  146.0760  141.7450  149.7950 C   0  0  0  0  0  2  0  0  0  0  0  0
  146.7100  141.7870  151.1610 C   0  0  0  0  0  0  0  0  0  0  0  0
  145.9530  142.1650  152.2790 C   0  0  0  0  0  3  0  0  0  0  0  0
  146.5350  142.2100  153.5490 C   0  0  0  0  0  3  0  0  0  0  0  0
  147.8820  141.8870  153.6920 C   0  0  0  0  0  0  0  0  0  0  0  0
  148.6500  141.5270  152.5920 C   0  0  0  0  0  3  0  0  0  0  0  0
  148.0670  141.4810  151.3250 C   0  0  0  0  0  3  0  0  0  0  0  0
  148.4900  141.9110  154.9110 O   0  0  0  0  0  0  0  0  0  0  0  0
  148.0190  142.2130  155.6630 H   0  0  0  0  0  0  0  0  0  0  0  0
  1  4  1  6  0  0  0
  1  2  1  0  0  0  0
  2  3  1  0  0  0  0
  4  5  1  0  0  0  0
  5  7  1  0  0  0  0
  6  5  2  0  0  0  0
  7  8  1  0  0  0  0
  8 11  1  0  0  0  0
  9 14  1  0  0  0  0
  9 16  1  0  0  0  0
 10  9  2  0  0  0  0
 11 12  2  0  0  0  0
 11 10  1  0  0  0  0
 12 13  1  0  0  0  0
 13 14  2  0  0  0  0
 14 17  1  0  0  0  0
 15 16  1  0  0  0  0
 17 18  1  0  0  0  0
 19  1  1  0  0  0  0
 19 20  1  0  0  0  0
 20 22  1  0  0  0  0
 21 20  2  0  0  0  0
 22 23  1  0  0  0  0
 23 24  1  0  0  0  0
 24 29  2  0  0  0  0
 24 25  1  0  0  0  0
 25 26  2  0  0  0  0
 26 27  1  0  0  0  0
 27 30  1  0  0  0  0
 28 27  2  0  0  0  0
 29 28  1  0  0  0  0
 30 31  1  0  0  0  0
M  END
>  <MODEL>
3

>  <REMARK>
 VINA RESULT:    -6.144      2.359      3.720
 INTER + INTRA:         -13.189
 INTER:                 -11.064
 INTRA:                  -2.125
 UNBOUND:                -2.555
  Name = CHEMBL4646487
  15 active torsions:
  status: ('A' for Active; 'I' for Inactive)
    1  A    between atoms: C_1  and  O_2
    2  A    between atoms: O_2  and  C_3
    3  A    between atoms: C_5  and  C_6
    4  A    between atoms: C_6  and  C_7
    5  A    between atoms: C_7  and  C_8
    6  A    between atoms: C_8  and  C_10
    7  A    between atoms: C_10  and  C_11
    8  A    between atoms: C_11  and  O_12
    9  A    between atoms: C_11  and  C_13
   10  A    between atoms: C_13  and  C_14
   11  A    between atoms: C_14  and  C_16
   12  A    between atoms: C_16  and  C_17
   13  A    between atoms: C_17  and  C_18
   14  A    between atoms: C_21  and  O_22
   15  A    between atoms: C_27  and  O_28
                            x       y       z     vdW  Elec       q    Type
                         _______ _______ _______ _____ _____    ______ ____

>  <TORSDO>
F 14

>  <SCORE>
-6.144

>  <RMSD_LB>
2.359

>  <RMSD_UB>
3.720

$$$$
CHEMBL4646487
 OpenBabel10172500213D

 31 32  0  0  1  0  0  0  0  0999 V2000
  144.8710  136.5430  147.7810 C   0  0  1  0  0  3  0  0  0  0  0  0
  145.5190  135.4460  148.4240 O   0  0  0  0  0  0  0  0  0  0  0  0
  146.4640  135.6400  148.5200 H   0  0  0  0  0  0  0  0  0  0  0  0
  143.3830  136.2930  147.5430 C   0  0  0  0  0  2  0  0  0  0  0  0
  142.6750  135.6920  148.7380 C   0  0  0  0  0  0  0  0  0  0  0  0
  142.9580  134.5540  149.1200 O   0  0  0  0  0  0  0  0  0  0  0  0
  141.6410  136.5290  149.4720 C   0  0  0  0  0  2  0  0  0  0  0  0
  142.1290  137.0210  150.8330 C   0  0  0  0  0  2  0  0  0  0  0  0
  140.1660  138.2980  153.8530 C   0  0  0  0  0  0  0  0  0  0  0  0
  141.2230  137.9070  153.0260 C   0  0  0  0  0  3  0  0  0  0  0  0
  140.9830  137.4690  151.7100 C   0  0  0  0  0  0  0  0  0  0  0  0
  139.6650  137.4240  151.2340 C   0  0  0  0  0  3  0  0  0  0  0  0
  138.6070  137.8100  152.0540 C   0  0  0  0  0  3  0  0  0  0  0  0
  138.8600  138.2410  153.3500 C   0  0  0  0  0  0  0  0  0  0  0  0
  140.5340  137.7720  156.1540 C   0  0  0  0  0  1  0  0  0  0  0  0
  140.2990  138.7420  155.1480 O   0  0  0  0  0  0  0  0  0  0  0  0
  137.8140  138.6140  154.1590 O   0  0  0  0  0  0  0  0  0  0  0  0
  137.6220  139.5220  154.2870 H   0  0  0  0  0  0  0  0  0  0  0  0
  145.1300  137.8360  148.5690 C   0  0  0  0  0  2  0  0  0  0  0  0
  146.4950  138.4540  148.2920 C   0  0  0  0  0  0  0  0  0  0  0  0
  147.3900  137.8300  147.7190 O   0  0  0  0  0  0  0  0  0  0  0  0
  146.7020  139.9050  148.6600 C   0  0  0  0  0  2  0  0  0  0  0  0
  145.5900  140.4280  149.5540 C   0  0  0  0  0  2  0  0  0  0  0  0
  146.1210  140.8150  150.9100 C   0  0  0  0  0  0  0  0  0  0  0  0
  145.5660  141.9030  151.6000 C   0  0  0  0  0  3  0  0  0  0  0  0
  146.0550  142.2710  152.8570 C   0  0  0  0  0  3  0  0  0  0  0  0
  147.1100  141.5520  153.4130 C   0  0  0  0  0  0  0  0  0  0  0  0
  147.6810  140.4830  152.7350 C   0  0  0  0  0  3  0  0  0  0  0  0
  147.1910  140.1150  151.4820 C   0  0  0  0  0  3  0  0  0  0  0  0
  147.6140  141.8710  154.6390 O   0  0  0  0  0  0  0  0  0  0  0  0
  147.6510  141.2210  155.3140 H   0  0  0  0  0  0  0  0  0  0  0  0
  1  4  1  1  0  0  0
  1  2  1  0  0  0  0
  1 19  1  0  0  0  0
  2  3  1  0  0  0  0
  4  5  1  0  0  0  0
  5  6  2  0  0  0  0
  5  7  1  0  0  0  0
  7  8  1  0  0  0  0
  8 11  1  0  0  0  0
  9 16  1  0  0  0  0
 10  9  2  0  0  0  0
 11 10  1  0  0  0  0
 12 11  2  0  0  0  0
 12 13  1  0  0  0  0
 13 14  2  0  0  0  0
 14  9  1  0  0  0  0
 14 17  1  0  0  0  0
 16 15  1  0  0  0  0
 17 18  1  0  0  0  0
 20 19  1  0  0  0  0
 20 22  1  0  0  0  0
 21 20  2  0  0  0  0
 22 23  1  0  0  0  0
 23 24  1  0  0  0  0
 24 29  2  0  0  0  0
 24 25  1  0  0  0  0
 25 26  2  0  0  0  0
 26 27  1  0  0  0  0
 27 30  1  0  0  0  0
 28 27  2  0  0  0  0
 29 28  1  0  0  0  0
 30 31  1  0  0  0  0
M  END
>  <MODEL>
4

>  <REMARK>
 VINA RESULT:    -6.019      3.050      4.989
 INTER + INTRA:         -12.972
 INTER:                 -11.328
 INTRA:                  -1.644
 UNBOUND:                -2.555
  Name = CHEMBL4646487
  15 active torsions:
  status: ('A' for Active; 'I' for Inactive)
    1  A    between atoms: C_1  and  O_2
    2  A    between atoms: O_2  and  C_3
    3  A    between atoms: C_5  and  C_6
    4  A    between atoms: C_6  and  C_7
    5  A    between atoms: C_7  and  C_8
    6  A    between atoms: C_8  and  C_10
    7  A    between atoms: C_10  and  C_11
    8  A    between atoms: C_11  and  O_12
    9  A    between atoms: C_11  and  C_13
   10  A    between atoms: C_13  and  C_14
   11  A    between atoms: C_14  and  C_16
   12  A    between atoms: C_16  and  C_17
   13  A    between atoms: C_17  and  C_18
   14  A    between atoms: C_21  and  O_22
   15  A    between atoms: C_27  and  O_28
                            x       y       z     vdW  Elec       q    Type
                         _______ _______ _______ _____ _____    ______ ____

>  <TORSDO>
F 14

>  <SCORE>
-6.019

>  <RMSD_LB>
3.050

>  <RMSD_UB>
4.989

$$$$
CHEMBL4646487
 OpenBabel10172500213D

 31 32  0  0  1  0  0  0  0  0999 V2000
  142.8260  136.6910  146.9030 C   0  0  1  0  0  3  0  0  0  0  0  0
  144.1740  136.2490  146.7470 O   0  0  0  0  0  0  0  0  0  0  0  0
  144.3910  135.6170  147.4500 H   0  0  0  0  0  0  0  0  0  0  0  0
  142.2620  136.3870  148.2900 C   0  0  0  0  0  2  0  0  0  0  0  0
  143.1960  135.5670  149.1530 C   0  0  0  0  0  0  0  0  0  0  0  0
  143.3880  134.3750  148.9030 O   0  0  0  0  0  0  0  0  0  0  0  0
  143.9160  136.2490  150.3040 C   0  0  0  0  0  2  0  0  0  0  0  0
  142.9820  137.0770  151.1860 C   0  0  0  0  0  2  0  0  0  0  0  0
  145.5190  137.5650  154.0010 C   0  0  0  0  0  0  0  0  0  0  0  0
  144.8570  137.0390  152.8880 C   0  0  0  0  0  3  0  0  0  0  0  0
  143.7080  137.6680  152.3710 C   0  0  0  0  0  0  0  0  0  0  0  0
  143.2270  138.8310  152.9900 C   0  0  0  0  0  3  0  0  0  0  0  0
  143.8830  139.3580  154.1020 C   0  0  0  0  0  3  0  0  0  0  0  0
  145.0150  138.7270  154.5990 C   0  0  0  0  0  0  0  0  0  0  0  0
  147.8980  137.3490  153.9940 C   0  0  0  0  0  1  0  0  0  0  0  0
  146.6470  137.0260  154.5760 O   0  0  0  0  0  0  0  0  0  0  0  0
  145.6540  139.2450  155.6990 O   0  0  0  0  0  0  0  0  0  0  0  0
  145.1650  139.4500  156.4720 H   0  0  0  0  0  0  0  0  0  0  0  0
  142.7200  138.1800  146.5400 C   0  0  0  0  0  2  0  0  0  0  0  0
  142.9490  139.1130  147.7230 C   0  0  0  0  0  0  0  0  0  0  0  0
  142.0990  139.2740  148.6010 O   0  0  0  0  0  0  0  0  0  0  0  0
  144.3000  139.7780  147.8480 C   0  0  0  0  0  2  0  0  0  0  0  0
  145.2240  139.0170  148.7840 C   0  0  0  0  0  2  0  0  0  0  0  0
  145.6000  139.8560  149.9780 C   0  0  0  0  0  0  0  0  0  0  0  0
  146.7180  139.5190  150.7530 C   0  0  0  0  0  3  0  0  0  0  0  0
  147.0710  140.2900  151.8640 C   0  0  0  0  0  3  0  0  0  0  0  0
  146.2920  141.3930  152.2010 C   0  0  0  0  0  0  0  0  0  0  0  0
  145.1710  141.7300  151.4530 C   0  0  0  0  0  3  0  0  0  0  0  0
  144.8210  140.9610  150.3440 C   0  0  0  0  0  3  0  0  0  0  0  0
  146.6020  142.1770  153.2720 O   0  0  0  0  0  0  0  0  0  0  0  0
  147.3920  142.6820  153.2690 H   0  0  0  0  0  0  0  0  0  0  0  0
  1 19  1  1  0  0  0
  1  4  1  0  0  0  0
  2  1  1  0  0  0  0
  2  3  1  0  0  0  0
  4  5  1  0  0  0  0
  5  7  1  0  0  0  0
  6  5  2  0  0  0  0
  7  8  1  0  0  0  0
  8 11  1  0  0  0  0
  9 16  1  0  0  0  0
  9 14  1  0  0  0  0
 10  9  2  0  0  0  0
 11 10  1  0  0  0  0
 11 12  2  0  0  0  0
 12 13  1  0  0  0  0
 13 14  2  0  0  0  0
 14 17  1  0  0  0  0
 15 16  1  0  0  0  0
 17 18  1  0  0  0  0
 19 20  1  0  0  0  0
 20 22  1  0  0  0  0
 20 21  2  0  0  0  0
 22 23  1  0  0  0  0
 23 24  1  0  0  0  0
 24 29  2  0  0  0  0
 24 25  1  0  0  0  0
 25 26  2  0  0  0  0
 26 27  1  0  0  0  0
 27 30  1  0  0  0  0
 28 27  2  0  0  0  0
 29 28  1  0  0  0  0
 31 30  1  0  0  0  0
M  END
>  <MODEL>
5

>  <REMARK>
 VINA RESULT:    -5.877      1.602      2.381
 INTER + INTRA:         -12.727
 INTER:                  -9.456
 INTRA:                  -3.270
 UNBOUND:                -2.555
  Name = CHEMBL4646487
  15 active torsions:
  status: ('A' for Active; 'I' for Inactive)
    1  A    between atoms: C_1  and  O_2
    2  A    between atoms: O_2  and  C_3
    3  A    between atoms: C_5  and  C_6
    4  A    between atoms: C_6  and  C_7
    5  A    between atoms: C_7  and  C_8
    6  A    between atoms: C_8  and  C_10
    7  A    between atoms: C_10  and  C_11
    8  A    between atoms: C_11  and  O_12
    9  A    between atoms: C_11  and  C_13
   10  A    between atoms: C_13  and  C_14
   11  A    between atoms: C_14  and  C_16
   12  A    between atoms: C_16  and  C_17
   13  A    between atoms: C_17  and  C_18
   14  A    between atoms: C_21  and  O_22
   15  A    between atoms: C_27  and  O_28
                            x       y       z     vdW  Elec       q    Type
                         _______ _______ _______ _____ _____    ______ ____

>  <TORSDO>
F 14

>  <SCORE>
-5.877

>  <RMSD_LB>
1.602

>  <RMSD_UB>
2.381

$$$$
CHEMBL4646487
 OpenBabel10172500213D

 31 32  0  0  1  0  0  0  0  0999 V2000
  139.7360  137.2200  146.3780 C   0  0  1  0  0  3  0  0  0  0  0  0
  139.3720  135.8630  146.1250 O   0  0  0  0  0  0  0  0  0  0  0  0
  140.0080  135.4670  145.5090 H   0  0  0  0  0  0  0  0  0  0  0  0
  138.7630  137.9260  147.3190 C   0  0  0  0  0  2  0  0  0  0  0  0
  137.5650  138.5210  146.6120 C   0  0  0  0  0  0  0  0  0  0  0  0
  137.7090  139.1230  145.5460 O   0  0  0  0  0  0  0  0  0  0  0  0
  136.1860  138.3300  147.2210 C   0  0  0  0  0  2  0  0  0  0  0  0
  136.1360  137.1920  148.2410 C   0  0  0  0  0  2  0  0  0  0  0  0
  133.5460  134.3830  148.2650 C   0  0  0  0  0  0  0  0  0  0  0  0
  134.3560  135.4450  148.6790 C   0  0  0  0  0  3  0  0  0  0  0  0
  135.2430  136.0650  147.7780 C   0  0  0  0  0  0  0  0  0  0  0  0
  135.3100  135.6040  146.4560 C   0  0  0  0  0  3  0  0  0  0  0  0
  134.5050  134.5440  146.0390 C   0  0  0  0  0  3  0  0  0  0  0  0
  133.6350  133.9430  146.9390 C   0  0  0  0  0  0  0  0  0  0  0  0
  132.5460  134.1270  150.4200 C   0  0  0  0  0  1  0  0  0  0  0  0
  132.6490  133.7160  149.0680 O   0  0  0  0  0  0  0  0  0  0  0  0
  132.8500  132.8950  146.5270 O   0  0  0  0  0  0  0  0  0  0  0  0
  131.9240  133.0110  146.4330 H   0  0  0  0  0  0  0  0  0  0  0  0
  141.1880  137.2850  146.8760 C   0  0  0  0  0  2  0  0  0  0  0  0
  141.3750  136.7280  148.2820 C   0  0  0  0  0  0  0  0  0  0  0  0
  141.0930  135.5620  148.5650 O   0  0  0  0  0  0  0  0  0  0  0  0
  142.0080  137.6250  149.3190 C   0  0  0  0  0  2  0  0  0  0  0  0
  142.4850  136.8440  150.5320 C   0  0  0  0  0  2  0  0  0  0  0  0
  141.8910  137.3940  151.8020 C   0  0  0  0  0  0  0  0  0  0  0  0
  142.7070  137.6390  152.9160 C   0  0  0  0  0  3  0  0  0  0  0  0
  142.1620  138.1450  154.0990 C   0  0  0  0  0  3  0  0  0  0  0  0
  140.7940  138.3960  154.1640 C   0  0  0  0  0  0  0  0  0  0  0  0
  139.9690  138.1430  153.0760 C   0  0  0  0  0  3  0  0  0  0  0  0
  140.5150  137.6390  151.8950 C   0  0  0  0  0  3  0  0  0  0  0  0
  140.2210  138.8960  155.2950 O   0  0  0  0  0  0  0  0  0  0  0  0
  139.3380  139.2100  155.2730 H   0  0  0  0  0  0  0  0  0  0  0  0
  1 19  1  1  0  0  0
  1  4  1  0  0  0  0
  2  1  1  0  0  0  0
  3  2  1  0  0  0  0
  5  7  1  0  0  0  0
  5  4  1  0  0  0  0
  6  5  2  0  0  0  0
  7  8  1  0  0  0  0
  9 10  1  0  0  0  0
  9 16  1  0  0  0  0
 11  8  1  0  0  0  0
 11 10  2  0  0  0  0
 12 11  1  0  0  0  0
 13 12  2  0  0  0  0
 13 14  1  0  0  0  0
 14  9  2  0  0  0  0
 16 15  1  0  0  0  0
 17 14  1  0  0  0  0
 18 17  1  0  0  0  0
 19 20  1  0  0  0  0
 20 21  2  0  0  0  0
 20 22  1  0  0  0  0
 22 23  1  0  0  0  0
 23 24  1  0  0  0  0
 24 29  2  0  0  0  0
 24 25  1  0  0  0  0
 25 26  2  0  0  0  0
 26 27  1  0  0  0  0
 27 30  1  0  0  0  0
 28 27  2  0  0  0  0
 29 28  1  0  0  0  0
 31 30  1  0  0  0  0
M  END
>  <MODEL>
6

>  <REMARK>
 VINA RESULT:    -5.185      6.989     10.560
 INTER + INTRA:         -11.528
 INTER:                 -10.114
 INTRA:                  -1.413
 UNBOUND:                -2.555
  Name = CHEMBL4646487
  15 active torsions:
  status: ('A' for Active; 'I' for Inactive)
    1  A    between atoms: C_1  and  O_2
    2  A    between atoms: O_2  and  C_3
    3  A    between atoms: C_5  and  C_6
    4  A    between atoms: C_6  and  C_7
    5  A    between atoms: C_7  and  C_8
    6  A    between atoms: C_8  and  C_10
    7  A    between atoms: C_10  and  C_11
    8  A    between atoms: C_11  and  O_12
    9  A    between atoms: C_11  and  C_13
   10  A    between atoms: C_13  and  C_14
   11  A    between atoms: C_14  and  C_16
   12  A    between atoms: C_16  and  C_17
   13  A    between atoms: C_17  and  C_18
   14  A    between atoms: C_21  and  O_22
   15  A    between atoms: C_27  and  O_28
                            x       y       z     vdW  Elec       q    Type
                         _______ _______ _______ _____ _____    ______ ____

>  <TORSDO>
F 14

>  <SCORE>
-5.185

>  <RMSD_LB>
6.989

>  <RMSD_UB>
10.560

$$$$
CHEMBL4646487
 OpenBabel10172500213D

 31 32  0  0  1  0  0  0  0  0999 V2000
  135.9640  137.3960  137.8380 C   0  0  1  0  0  3  0  0  0  0  0  0
  136.3850  137.7140  136.5120 O   0  0  0  0  0  0  0  0  0  0  0  0
  136.4100  136.9050  135.9780 H   0  0  0  0  0  0  0  0  0  0  0  0
  137.1220  136.9750  138.7400 C   0  0  0  0  0  2  0  0  0  0  0  0
  136.9490  135.5960  139.3390 C   0  0  0  0  0  0  0  0  0  0  0  0
  137.4320  134.6100  138.7780 O   0  0  0  0  0  0  0  0  0  0  0  0
  136.2050  135.4590  140.6570 C   0  0  0  0  0  2  0  0  0  0  0  0
  137.1380  135.3000  141.8560 C   0  0  0  0  0  2  0  0  0  0  0  0
  135.4990  133.0590  144.4810 C   0  0  0  0  0  0  0  0  0  0  0  0
  135.8110  134.1720  143.6950 C   0  0  0  0  0  3  0  0  0  0  0  0
  136.7860  134.0860  142.6820 C   0  0  0  0  0  0  0  0  0  0  0  0
  137.4480  132.8680  142.4710 C   0  0  0  0  0  3  0  0  0  0  0  0
  137.1420  131.7560  143.2540 C   0  0  0  0  0  3  0  0  0  0  0  0
  136.1780  131.8560  144.2490 C   0  0  0  0  0  0  0  0  0  0  0  0
  134.7600  133.9250  146.5810 C   0  0  0  0  0  1  0  0  0  0  0  0
  134.5630  133.0430  145.4900 O   0  0  0  0  0  0  0  0  0  0  0  0
  135.8840  130.7610  145.0230 O   0  0  0  0  0  0  0  0  0  0  0  0
  135.5610  130.8770  145.8960 H   0  0  0  0  0  0  0  0  0  0  0  0
  135.1580  138.5650  138.4240 C   0  0  0  0  0  2  0  0  0  0  0  0
  133.7180  138.2010  138.7670 C   0  0  0  0  0  0  0  0  0  0  0  0
  132.8990  137.8950  137.8990 O   0  0  0  0  0  0  0  0  0  0  0  0
  133.3350  138.1350  140.2260 C   0  0  0  0  0  2  0  0  0  0  0  0
  134.3010  138.9140  141.1040 C   0  0  0  0  0  2  0  0  0  0  0  0
  133.9940  138.7090  142.5640 C   0  0  0  0  0  0  0  0  0  0  0  0
  133.4240  139.7450  143.3180 C   0  0  0  0  0  3  0  0  0  0  0  0
  133.1400  139.5640  144.6750 C   0  0  0  0  0  3  0  0  0  0  0  0
  133.4420  138.3440  145.2750 C   0  0  0  0  0  0  0  0  0  0  0  0
  134.0230  137.3140  144.5470 C   0  0  0  0  0  3  0  0  0  0  0  0
  134.3030  137.4950  143.1930 C   0  0  0  0  0  3  0  0  0  0  0  0
  133.1770  138.1210  146.5930 O   0  0  0  0  0  0  0  0  0  0  0  0
  133.3500  137.2810  146.9700 H   0  0  0  0  0  0  0  0  0  0  0  0
  1 19  1  1  0  0  0
  1  4  1  0  0  0  0
  2  1  1  0  0  0  0
  3  2  1  0  0  0  0
  4  5  1  0  0  0  0
  5  7  1  0  0  0  0
  6  5  2  0  0  0  0
  7  8  1  0  0  0  0
  8 11  1  0  0  0  0
  9 16  1  0  0  0  0
 10  9  2  0  0  0  0
 11 10  1  0  0  0  0
 12 11  2  0  0  0  0
 12 13  1  0  0  0  0
 13 14  2  0  0  0  0
 14  9  1  0  0  0  0
 14 17  1  0  0  0  0
 16 15  1  0  0  0  0
 17 18  1  0  0  0  0
 19 20  1  0  0  0  0
 20 22  1  0  0  0  0
 21 20  2  0  0  0  0
 22 23  1  0  0  0  0
 23 24  1  0  0  0  0
 24 29  2  0  0  0  0
 24 25  1  0  0  0  0
 25 26  2  0  0  0  0
 26 27  1  0  0  0  0
 27 30  1  0  0  0  0
 28 27  2  0  0  0  0
 29 28  1  0  0  0  0
 30 31  1  0  0  0  0
M  END
>  <MODEL>
7

>  <REMARK>
 VINA RESULT:    -4.986     14.017     15.460
 INTER + INTRA:         -11.185
 INTER:                  -9.215
 INTRA:                  -1.969
 UNBOUND:                -2.555
  Name = CHEMBL4646487
  15 active torsions:
  status: ('A' for Active; 'I' for Inactive)
    1  A    between atoms: C_1  and  O_2
    2  A    between atoms: O_2  and  C_3
    3  A    between atoms: C_5  and  C_6
    4  A    between atoms: C_6  and  C_7
    5  A    between atoms: C_7  and  C_8
    6  A    between atoms: C_8  and  C_10
    7  A    between atoms: C_10  and  C_11
    8  A    between atoms: C_11  and  O_12
    9  A    between atoms: C_11  and  C_13
   10  A    between atoms: C_13  and  C_14
   11  A    between atoms: C_14  and  C_16
   12  A    between atoms: C_16  and  C_17
   13  A    between atoms: C_17  and  C_18
   14  A    between atoms: C_21  and  O_22
   15  A    between atoms: C_27  and  O_28
                            x       y       z     vdW  Elec       q    Type
                         _______ _______ _______ _____ _____    ______ ____

>  <TORSDO>
F 14

>  <SCORE>
-4.986

>  <RMSD_LB>
14.017

>  <RMSD_UB>
15.460

$$$$
CHEMBL4646487
 OpenBabel10172500213D

 31 32  0  0  1  0  0  0  0  0999 V2000
  139.4730  137.1550  146.0060 C   0  0  1  0  0  3  0  0  0  0  0  0
  139.0210  135.8430  145.6740 O   0  0  0  0  0  0  0  0  0  0  0  0
  138.2450  135.9050  145.0960 H   0  0  0  0  0  0  0  0  0  0  0  0
  138.4920  137.9090  146.9020 C   0  0  0  0  0  2  0  0  0  0  0  0
  137.4350  138.6690  146.1310 C   0  0  0  0  0  0  0  0  0  0  0  0
  137.7430  139.3150  145.1260 O   0  0  0  0  0  0  0  0  0  0  0  0
  135.9920  138.5920  146.5980 C   0  0  0  0  0  2  0  0  0  0  0  0
  135.2130  137.4510  145.9440 C   0  0  0  0  0  2  0  0  0  0  0  0
  134.3150  137.8920  142.2570 C   0  0  0  0  0  0  0  0  0  0  0  0
  134.9450  137.4570  143.4260 C   0  0  0  0  0  3  0  0  0  0  0  0
  134.5080  137.9030  144.6870 C   0  0  0  0  0  0  0  0  0  0  0  0
  133.4290  138.7960  144.7610 C   0  0  0  0  0  3  0  0  0  0  0  0
  132.7980  139.2340  143.5980 C   0  0  0  0  0  3  0  0  0  0  0  0
  133.2410  138.7850  142.3610 C   0  0  0  0  0  0  0  0  0  0  0  0
  135.5630  136.4240  140.8450 C   0  0  0  0  0  1  0  0  0  0  0  0
  134.6670  137.5120  140.9820 O   0  0  0  0  0  0  0  0  0  0  0  0
  132.6220  139.2240  141.2170 O   0  0  0  0  0  0  0  0  0  0  0  0
  133.0600  139.1590  140.3920 H   0  0  0  0  0  0  0  0  0  0  0  0
  140.8840  137.0830  146.6100 C   0  0  0  0  0  2  0  0  0  0  0  0
  140.9050  136.5790  148.0490 C   0  0  0  0  0  0  0  0  0  0  0  0
  140.5570  135.4350  148.3450 O   0  0  0  0  0  0  0  0  0  0  0  0
  141.4560  137.5010  149.1110 C   0  0  0  0  0  2  0  0  0  0  0  0
  141.8150  136.7510  150.3830 C   0  0  0  0  0  2  0  0  0  0  0  0
  141.1650  137.3810  151.5880 C   0  0  0  0  0  0  0  0  0  0  0  0
  141.9240  137.6650  152.7320 C   0  0  0  0  0  3  0  0  0  0  0  0
  141.3270  138.2460  153.8540 C   0  0  0  0  0  3  0  0  0  0  0  0
  139.9640  138.5290  153.8300 C   0  0  0  0  0  0  0  0  0  0  0  0
  139.1950  138.2370  152.7110 C   0  0  0  0  0  3  0  0  0  0  0  0
  139.7920  137.6600  151.5900 C   0  0  0  0  0  3  0  0  0  0  0  0
  139.3420  139.1000  154.8990 O   0  0  0  0  0  0  0  0  0  0  0  0
  138.7290  139.7970  154.7660 H   0  0  0  0  0  0  0  0  0  0  0  0
  1 19  1  1  0  0  0
  1  4  1  0  0  0  0
  2  1  1  0  0  0  0
  3  2  1  0  0  0  0
  5  7  1  0  0  0  0
  5  4  1  0  0  0  0
  6  5  2  0  0  0  0
  8  7  1  0  0  0  0
  9 14  2  0  0  0  0
  9 10  1  0  0  0  0
 10 11  2  0  0  0  0
 11 12  1  0  0  0  0
 11  8  1  0  0  0  0
 13 12  2  0  0  0  0
 14 13  1  0  0  0  0
 15 16  1  0  0  0  0
 16  9  1  0  0  0  0
 17 14  1  0  0  0  0
 18 17  1  0  0  0  0
 19 20  1  0  0  0  0
 20 21  2  0  0  0  0
 20 22  1  0  0  0  0
 22 23  1  0  0  0  0
 23 24  1  0  0  0  0
 24 29  2  0  0  0  0
 24 25  1  0  0  0  0
 25 26  2  0  0  0  0
 27 26  1  0  0  0  0
 27 30  1  0  0  0  0
 28 27  2  0  0  0  0
 29 28  1  0  0  0  0
 31 30  1  0  0  0  0
M  END
>  <MODEL>
8

>  <REMARK>
 VINA RESULT:    -4.488      7.621     11.854
 INTER + INTRA:         -10.322
 INTER:                  -9.028
 INTRA:                  -1.294
 UNBOUND:                -2.555
  Name = CHEMBL4646487
  15 active torsions:
  status: ('A' for Active; 'I' for Inactive)
    1  A    between atoms: C_1  and  O_2
    2  A    between atoms: O_2  and  C_3
    3  A    between atoms: C_5  and  C_6
    4  A    between atoms: C_6  and  C_7
    5  A    between atoms: C_7  and  C_8
    6  A    between atoms: C_8  and  C_10
    7  A    between atoms: C_10  and  C_11
    8  A    between atoms: C_11  and  O_12
    9  A    between atoms: C_11  and  C_13
   10  A    between atoms: C_13  and  C_14
   11  A    between atoms: C_14  and  C_16
   12  A    between atoms: C_16  and  C_17
   13  A    between atoms: C_17  and  C_18
   14  A    between atoms: C_21  and  O_22
   15  A    between atoms: C_27  and  O_28
                            x       y       z     vdW  Elec       q    Type
                         _______ _______ _______ _____ _____    ______ ____

>  <TORSDO>
F 14

>  <SCORE>
-4.488

>  <RMSD_LB>
7.621

>  <RMSD_UB>
11.854

$$$$
CHEMBL4646487
 OpenBabel10172500213D

 31 32  0  0  1  0  0  0  0  0999 V2000
  135.8790  137.3910  137.2490 C   0  0  1  0  0  3  0  0  0  0  0  0
  136.6200  137.2930  136.0320 O   0  0  0  0  0  0  0  0  0  0  0  0
  136.7340  136.3580  135.7980 H   0  0  0  0  0  0  0  0  0  0  0  0
  136.7670  137.3080  138.4890 C   0  0  0  0  0  2  0  0  0  0  0  0
  136.4390  136.1350  139.3870 C   0  0  0  0  0  0  0  0  0  0  0  0
  137.0520  135.0710  139.2670 O   0  0  0  0  0  0  0  0  0  0  0  0
  135.3720  136.3060  140.4540 C   0  0  0  0  0  2  0  0  0  0  0  0
  135.9190  136.8890  141.7570 C   0  0  0  0  0  2  0  0  0  0  0  0
  134.4670  135.6810  145.0790 C   0  0  0  0  0  0  0  0  0  0  0  0
  134.7490  136.4780  143.9650 C   0  0  0  0  0  3  0  0  0  0  0  0
  135.5960  136.0100  142.9420 C   0  0  0  0  0  0  0  0  0  0  0  0
  136.1610  134.7310  143.0530 C   0  0  0  0  0  3  0  0  0  0  0  0
  135.8850  133.9340  144.1620 C   0  0  0  0  0  3  0  0  0  0  0  0
  135.0470  134.4090  145.1620 C   0  0  0  0  0  0  0  0  0  0  0  0
  134.0550  137.1530  146.9140 C   0  0  0  0  0  1  0  0  0  0  0  0
  133.6530  136.0480  146.1250 O   0  0  0  0  0  0  0  0  0  0  0  0
  134.7820  133.6240  146.2570 O   0  0  0  0  0  0  0  0  0  0  0  0
  134.5680  134.0210  147.0790 H   0  0  0  0  0  0  0  0  0  0  0  0
  135.0130  138.6590  137.2300 C   0  0  0  0  0  2  0  0  0  0  0  0
  133.5480  138.4010  137.5640 C   0  0  0  0  0  0  0  0  0  0  0  0
  132.8030  137.7860  136.7990 O   0  0  0  0  0  0  0  0  0  0  0  0
  133.0430  138.8440  138.9170 C   0  0  0  0  0  2  0  0  0  0  0  0
  134.0700  139.6820  139.6600 C   0  0  0  0  0  2  0  0  0  0  0  0
  133.7430  139.7660  141.1280 C   0  0  0  0  0  0  0  0  0  0  0  0
  132.7470  138.9460  141.6780 C   0  0  0  0  0  3  0  0  0  0  0  0
  132.4350  139.0210  143.0380 C   0  0  0  0  0  3  0  0  0  0  0  0
  133.1190  139.9280  143.8430 C   0  0  0  0  0  0  0  0  0  0  0  0
  134.0970  140.7580  143.3110 C   0  0  0  0  0  3  0  0  0  0  0  0
  134.4080  140.6820  141.9540 C   0  0  0  0  0  3  0  0  0  0  0  0
  132.8530  140.0300  145.1760 O   0  0  0  0  0  0  0  0  0  0  0  0
  132.5820  140.8510  145.5380 H   0  0  0  0  0  0  0  0  0  0  0  0
  1 19  1  6  0  0  0
  1  4  1  0  0  0  0
  2  1  1  0  0  0  0
  3  2  1  0  0  0  0
  4  5  1  0  0  0  0
  5  7  1  0  0  0  0
  6  5  2  0  0  0  0
  7  8  1  0  0  0  0
  8 11  1  0  0  0  0
  9 14  1  0  0  0  0
  9 16  1  0  0  0  0
 10  9  2  0  0  0  0
 11 12  2  0  0  0  0
 11 10  1  0  0  0  0
 12 13  1  0  0  0  0
 13 14  2  0  0  0  0
 14 17  1  0  0  0  0
 16 15  1  0  0  0  0
 17 18  1  0  0  0  0
 19 20  1  0  0  0  0
 20 22  1  0  0  0  0
 21 20  2  0  0  0  0
 22 23  1  0  0  0  0
 23 24  1  0  0  0  0
 24 25  2  0  0  0  0
 24 29  1  0  0  0  0
 25 26  1  0  0  0  0
 26 27  2  0  0  0  0
 27 30  1  0  0  0  0
 28 27  1  0  0  0  0
 29 28  2  0  0  0  0
 30 31  1  0  0  0  0
M  END
>  <MODEL>
9

>  <REMARK>
 VINA RESULT:    -4.473     13.714     15.880
 INTER + INTRA:         -10.296
 INTER:                  -7.741
 INTRA:                  -2.555
 UNBOUND:                -2.555
  Name = CHEMBL4646487
  15 active torsions:
  status: ('A' for Active; 'I' for Inactive)
    1  A    between atoms: C_1  and  O_2
    2  A    between atoms: O_2  and  C_3
    3  A    between atoms: C_5  and  C_6
    4  A    between atoms: C_6  and  C_7
    5  A    between atoms: C_7  and  C_8
    6  A    between atoms: C_8  and  C_10
    7  A    between atoms: C_10  and  C_11
    8  A    between atoms: C_11  and  O_12
    9  A    between atoms: C_11  and  C_13
   10  A    between atoms: C_13  and  C_14
   11  A    between atoms: C_14  and  C_16
   12  A    between atoms: C_16  and  C_17
   13  A    between atoms: C_17  and  C_18
   14  A    between atoms: C_21  and  O_22
   15  A    between atoms: C_27  and  O_28
                            x       y       z     vdW  Elec       q    Type
                         _______ _______ _______ _____ _____    ______ ____

>  <TORSDO>
F 14

>  <SCORE>
-4.473

>  <RMSD_LB>
13.714

>  <RMSD_UB>
15.880

$$$$
