CHEMBL4072624
 OpenBabel10172500233D

 22 22  0  0  1  0  0  0  0  0999 V2000
  146.3750  138.4290  153.2620 C   0  0  0  0  0  2  0  0  0  0  0  0
  146.8710  139.1580  154.4980 C   0  0  0  0  0  0  0  0  0  0  0  0
  147.0050  138.5930  155.5830 O   0  0  0  0  0  0  0  0  0  0  0  0
  147.2740  140.6020  154.3110 C   0  0  0  0  0  2  0  0  0  0  0  0
  148.1990  140.7800  153.1140 C   0  0  2  0  0  3  0  0  0  0  0  0
  149.5260  141.0060  153.6000 O   0  0  0  0  0  0  0  0  0  0  0  0
  149.7390  141.9490  153.5320 H   0  0  0  0  0  0  0  0  0  0  0  0
  147.7750  141.9550  152.2240 C   0  0  0  0  0  2  0  0  0  0  0  0
  146.3000  142.3000  152.4340 C   0  0  0  0  0  2  0  0  0  0  0  0
  146.6370  142.7440  149.9940 C   0  0  0  0  0  1  0  0  0  0  0  0
  145.6280  142.7140  151.1280 C   0  0  0  0  0  2  0  0  0  0  0  0
  144.9150  138.7750  152.9950 C   0  0  0  0  0  2  0  0  0  0  0  0
  144.6820  139.1630  151.5610 C   0  0  0  0  0  0  0  0  0  0  0  0
  145.7200  139.0600  150.6310 C   0  0  0  0  0  3  0  0  0  0  0  0
  145.5070  139.4080  149.2990 C   0  0  0  0  0  3  0  0  0  0  0  0
  144.2510  139.8680  148.8830 C   0  0  0  0  0  0  0  0  0  0  0  0
  143.2040  139.9910  149.7990 C   0  0  0  0  0  0  0  0  0  0  0  0
  143.4330  139.6360  151.1340 C   0  0  0  0  0  3  0  0  0  0  0  0
  144.0960  140.1870  147.5610 O   0  0  0  0  0  0  0  0  0  0  0  0
  144.8450  140.2380  147.0000 H   0  0  0  0  0  0  0  0  0  0  0  0
  141.9200  140.4210  149.5700 O   0  0  0  0  0  0  0  0  0  0  0  0
  140.8870  139.4490  149.5450 C   0  0  0  0  0  1  0  0  0  0  0  0
  1  2  1  0  0  0  0
  2  3  2  0  0  0  0
  4  2  1  0  0  0  0
  5  8  1  1  0  0  0
  5  6  1  0  0  0  0
  5  4  1  0  0  0  0
  7  6  1  0  0  0  0
  8  9  1  0  0  0  0
 10 11  1  0  0  0  0
 11  9  1  0  0  0  0
 12  1  1  0  0  0  0
 13 12  1  0  0  0  0
 14 13  2  0  0  0  0
 15 14  1  0  0  0  0
 16 15  2  0  0  0  0
 16 17  1  0  0  0  0
 17 18  2  0  0  0  0
 18 13  1  0  0  0  0
 19 16  1  0  0  0  0
 20 19  1  0  0  0  0
 21 17  1  0  0  0  0
 22 21  1  0  0  0  0
M  END
>  <MODEL>
1

>  <REMARK>
 VINA RESULT:    -5.634      0.000      0.000
 INTER + INTRA:         -10.901
 INTER:                  -8.888
 INTRA:                  -2.013
 UNBOUND:                -1.973
  Name = CHEMBL4072624
  13 active torsions:
  status: ('A' for Active; 'I' for Inactive)
    1  A    between atoms: C_1  and  C_2
    2  A    between atoms: C_2  and  C_3
    3  A    between atoms: C_3  and  C_4
    4  A    between atoms: C_4  and  C_5
    5  A    between atoms: C_5  and  O_6
    6  A    between atoms: C_5  and  C_7
    7  A    between atoms: C_7  and  C_8
    8  A    between atoms: C_8  and  C_10
    9  A    between atoms: C_10  and  C_11
   10  A    between atoms: C_11  and  C_12
   11  A    between atoms: C_15  and  O_16
   12  A    between atoms: C_17  and  O_18
   13  A    between atoms: O_18  and  C_19
                            x       y       z     vdW  Elec       q    Type
                         _______ _______ _______ _____ _____    ______ ____

>  <TORSDO>
F 11

>  <SCORE>
-5.634

>  <RMSD_LB>
0.000

>  <RMSD_UB>
0.000

$$$$
CHEMBL4072624
 OpenBabel10172500233D

 22 22  0  0  1  0  0  0  0  0999 V2000
  132.8880  133.9200  150.2300 C   0  0  0  0  0  2  0  0  0  0  0  0
  132.9160  133.3440  148.8250 C   0  0  0  0  0  0  0  0  0  0  0  0
  132.0790  133.6470  147.9760 O   0  0  0  0  0  0  0  0  0  0  0  0
  134.0780  132.4390  148.4930 C   0  0  0  0  0  2  0  0  0  0  0  0
  134.9270  133.0000  147.3590 C   0  0  2  0  0  3  0  0  0  0  0  0
  135.5900  131.9110  146.7090 O   0  0  0  0  0  0  0  0  0  0  0  0
  136.2250  132.2580  146.0650 H   0  0  0  0  0  0  0  0  0  0  0  0
  135.9710  134.0060  147.8610 C   0  0  0  0  0  2  0  0  0  0  0  0
  135.6690  135.4150  147.3470 C   0  0  0  0  0  2  0  0  0  0  0  0
  133.9830  136.8860  148.4690 C   0  0  0  0  0  1  0  0  0  0  0  0
  135.4190  136.3900  148.4930 C   0  0  0  0  0  2  0  0  0  0  0  0
  133.9570  133.2590  151.0930 C   0  0  0  0  0  2  0  0  0  0  0  0
  134.5240  134.2100  152.1100 C   0  0  0  0  0  0  0  0  0  0  0  0
  135.6150  135.0190  151.7810 C   0  0  0  0  0  3  0  0  0  0  0  0
  136.1380  135.9090  152.7160 C   0  0  0  0  0  3  0  0  0  0  0  0
  135.5770  135.9960  153.9970 C   0  0  0  0  0  0  0  0  0  0  0  0
  134.4950  135.1860  154.3510 C   0  0  0  0  0  0  0  0  0  0  0  0
  133.9800  134.2980  153.4000 C   0  0  0  0  0  3  0  0  0  0  0  0
  136.1260  136.8930  154.8730 O   0  0  0  0  0  0  0  0  0  0  0  0
  135.6190  137.6210  155.1760 H   0  0  0  0  0  0  0  0  0  0  0  0
  133.8270  135.1380  155.5500 O   0  0  0  0  0  0  0  0  0  0  0  0
  134.4130  134.3970  156.6090 C   0  0  0  0  0  1  0  0  0  0  0  0
  1 12  1  0  0  0  0
  2  1  1  0  0  0  0
  3  2  2  0  0  0  0
  4  2  1  0  0  0  0
  5  8  1  1  0  0  0
  5  4  1  0  0  0  0
  6  5  1  0  0  0  0
  7  6  1  0  0  0  0
  9  8  1  0  0  0  0
  9 11  1  0  0  0  0
 10 11  1  0  0  0  0
 12 13  1  0  0  0  0
 13 18  1  0  0  0  0
 14 13  2  0  0  0  0
 14 15  1  0  0  0  0
 15 16  2  0  0  0  0
 16 17  1  0  0  0  0
 16 19  1  0  0  0  0
 17 21  1  0  0  0  0
 18 17  2  0  0  0  0
 19 20  1  0  0  0  0
 21 22  1  0  0  0  0
M  END
>  <MODEL>
2

>  <REMARK>
 VINA RESULT:    -5.483     10.870     13.507
 INTER + INTRA:         -10.661
 INTER:                  -9.122
 INTRA:                  -1.538
 UNBOUND:                -1.973
  Name = CHEMBL4072624
  13 active torsions:
  status: ('A' for Active; 'I' for Inactive)
    1  A    between atoms: C_1  and  C_2
    2  A    between atoms: C_2  and  C_3
    3  A    between atoms: C_3  and  C_4
    4  A    between atoms: C_4  and  C_5
    5  A    between atoms: C_5  and  O_6
    6  A    between atoms: C_5  and  C_7
    7  A    between atoms: C_7  and  C_8
    8  A    between atoms: C_8  and  C_10
    9  A    between atoms: C_10  and  C_11
   10  A    between atoms: C_11  and  C_12
   11  A    between atoms: C_15  and  O_16
   12  A    between atoms: C_17  and  O_18
   13  A    between atoms: O_18  and  C_19
                            x       y       z     vdW  Elec       q    Type
                         _______ _______ _______ _____ _____    ______ ____

>  <TORSDO>
F 11

>  <SCORE>
-5.483

>  <RMSD_LB>
10.870

>  <RMSD_UB>
13.507

$$$$
CHEMBL4072624
 OpenBabel10172500233D

 22 22  0  0  1  0  0  0  0  0999 V2000
  146.2840  138.1560  153.4270 C   0  0  0  0  0  2  0  0  0  0  0  0
  146.7230  139.0400  154.5810 C   0  0  0  0  0  0  0  0  0  0  0  0
  146.3370  138.8510  155.7340 O   0  0  0  0  0  0  0  0  0  0  0  0
  147.7270  140.1200  154.2570 C   0  0  0  0  0  2  0  0  0  0  0  0
  147.0620  141.4800  154.0900 C   0  0  2  0  0  3  0  0  0  0  0  0
  145.6840  141.3560  154.4560 O   0  0  0  0  0  0  0  0  0  0  0  0
  145.2220  142.1850  154.2570 H   0  0  0  0  0  0  0  0  0  0  0  0
  147.1640  142.0020  152.6520 C   0  0  0  0  0  2  0  0  0  0  0  0
  145.7950  142.4380  152.1260 C   0  0  0  0  0  2  0  0  0  0  0  0
  146.8390  142.8580  149.8900 C   0  0  0  0  0  1  0  0  0  0  0  0
  145.6740  142.2150  150.6220 C   0  0  0  0  0  2  0  0  0  0  0  0
  144.9450  137.5000  153.7440 C   0  0  0  0  0  2  0  0  0  0  0  0
  143.8070  138.1680  153.0250 C   0  0  0  0  0  0  0  0  0  0  0  0
  144.0660  139.1510  152.0650 C   0  0  0  0  0  3  0  0  0  0  0  0
  143.0150  139.7670  151.3890 C   0  0  0  0  0  3  0  0  0  0  0  0
  141.6900  139.4080  151.6670 C   0  0  0  0  0  0  0  0  0  0  0  0
  141.4090  138.4370  152.6320 C   0  0  0  0  0  0  0  0  0  0  0  0
  142.4750  137.8270  153.3030 C   0  0  0  0  0  3  0  0  0  0  0  0
  140.6980  140.0380  150.9660 O   0  0  0  0  0  0  0  0  0  0  0  0
  140.7400  140.9640  150.8260 H   0  0  0  0  0  0  0  0  0  0  0  0
  140.1820  137.9660  153.0310 O   0  0  0  0  0  0  0  0  0  0  0  0
  139.4620  138.7180  153.9950 C   0  0  0  0  0  1  0  0  0  0  0  0
  1 12  1  0  0  0  0
  1  2  1  0  0  0  0
  2  3  2  0  0  0  0
  4  2  1  0  0  0  0
  5  8  1  6  0  0  0
  5  4  1  0  0  0  0
  5  6  1  0  0  0  0
  7  6  1  0  0  0  0
  9  8  1  0  0  0  0
 10 11  1  0  0  0  0
 11  9  1  0  0  0  0
 13 18  1  0  0  0  0
 13 12  1  0  0  0  0
 14 13  2  0  0  0  0
 15 16  2  0  0  0  0
 15 14  1  0  0  0  0
 16 17  1  0  0  0  0
 17 21  1  0  0  0  0
 17 18  2  0  0  0  0
 19 16  1  0  0  0  0
 20 19  1  0  0  0  0
 21 22  1  0  0  0  0
M  END
>  <MODEL>
3

>  <REMARK>
 VINA RESULT:    -5.461      2.048      2.704
 INTER + INTRA:         -10.627
 INTER:                  -9.185
 INTRA:                  -1.441
 UNBOUND:                -1.973
  Name = CHEMBL4072624
  13 active torsions:
  status: ('A' for Active; 'I' for Inactive)
    1  A    between atoms: C_1  and  C_2
    2  A    between atoms: C_2  and  C_3
    3  A    between atoms: C_3  and  C_4
    4  A    between atoms: C_4  and  C_5
    5  A    between atoms: C_5  and  O_6
    6  A    between atoms: C_5  and  C_7
    7  A    between atoms: C_7  and  C_8
    8  A    between atoms: C_8  and  C_10
    9  A    between atoms: C_10  and  C_11
   10  A    between atoms: C_11  and  C_12
   11  A    between atoms: C_15  and  O_16
   12  A    between atoms: C_17  and  O_18
   13  A    between atoms: O_18  and  C_19
                            x       y       z     vdW  Elec       q    Type
                         _______ _______ _______ _____ _____    ______ ____

>  <TORSDO>
F 11

>  <SCORE>
-5.461

>  <RMSD_LB>
2.048

>  <RMSD_UB>
2.704

$$$$
CHEMBL4072624
 OpenBabel10172500233D

 22 22  0  0  1  0  0  0  0  0999 V2000
  132.8230  133.8190  150.1090 C   0  0  0  0  0  2  0  0  0  0  0  0
  132.9080  133.3120  148.6800 C   0  0  0  0  0  0  0  0  0  0  0  0
  132.0910  133.6380  147.8200 O   0  0  0  0  0  0  0  0  0  0  0  0
  134.0990  132.4460  148.3430 C   0  0  0  0  0  2  0  0  0  0  0  0
  134.9250  133.0390  147.2090 C   0  0  2  0  0  3  0  0  0  0  0  0
  134.1230  133.0520  146.0240 O   0  0  0  0  0  0  0  0  0  0  0  0
  134.3810  132.3130  145.4520 H   0  0  0  0  0  0  0  0  0  0  0  0
  136.2080  132.2390  146.9480 C   0  0  0  0  0  2  0  0  0  0  0  0
  137.3060  133.1330  146.3690 C   0  0  0  0  0  2  0  0  0  0  0  0
  138.7060  134.0920  148.2090 C   0  0  0  0  0  1  0  0  0  0  0  0
  137.5590  134.3540  147.2470 C   0  0  0  0  0  2  0  0  0  0  0  0
  133.9900  133.2820  150.9290 C   0  0  0  0  0  2  0  0  0  0  0  0
  134.8870  134.3860  151.4200 C   0  0  0  0  0  0  0  0  0  0  0  0
  135.9310  134.8500  150.6150 C   0  0  0  0  0  3  0  0  0  0  0  0
  136.7570  135.8780  151.0610 C   0  0  0  0  0  3  0  0  0  0  0  0
  136.5510  136.4530  152.3210 C   0  0  0  0  0  0  0  0  0  0  0  0
  135.5210  135.9950  153.1470 C   0  0  0  0  0  0  0  0  0  0  0  0
  134.6980  134.9620  152.6850 C   0  0  0  0  0  3  0  0  0  0  0  0
  137.3870  137.4670  152.7040 O   0  0  0  0  0  0  0  0  0  0  0  0
  137.5690  138.1720  152.1140 H   0  0  0  0  0  0  0  0  0  0  0  0
  135.1770  136.4370  154.4010 O   0  0  0  0  0  0  0  0  0  0  0  0
  135.5720  135.6510  155.5140 C   0  0  0  0  0  1  0  0  0  0  0  0
  1 12  1  0  0  0  0
  2  1  1  0  0  0  0
  3  2  2  0  0  0  0
  4  2  1  0  0  0  0
  5  8  1  6  0  0  0
  5  4  1  0  0  0  0
  6  5  1  0  0  0  0
  7  6  1  0  0  0  0
  9  8  1  0  0  0  0
  9 11  1  0  0  0  0
 11 10  1  0  0  0  0
 12 13  1  0  0  0  0
 13 18  1  0  0  0  0
 14 15  1  0  0  0  0
 14 13  2  0  0  0  0
 15 16  2  0  0  0  0
 16 19  1  0  0  0  0
 16 17  1  0  0  0  0
 17 21  1  0  0  0  0
 18 17  2  0  0  0  0
 20 19  1  0  0  0  0
 21 22  1  0  0  0  0
M  END
>  <MODEL>
4

>  <REMARK>
 VINA RESULT:    -5.415      9.894     13.092
 INTER + INTRA:         -10.553
 INTER:                  -9.169
 INTRA:                  -1.384
 UNBOUND:                -1.973
  Name = CHEMBL4072624
  13 active torsions:
  status: ('A' for Active; 'I' for Inactive)
    1  A    between atoms: C_1  and  C_2
    2  A    between atoms: C_2  and  C_3
    3  A    between atoms: C_3  and  C_4
    4  A    between atoms: C_4  and  C_5
    5  A    between atoms: C_5  and  O_6
    6  A    between atoms: C_5  and  C_7
    7  A    between atoms: C_7  and  C_8
    8  A    between atoms: C_8  and  C_10
    9  A    between atoms: C_10  and  C_11
   10  A    between atoms: C_11  and  C_12
   11  A    between atoms: C_15  and  O_16
   12  A    between atoms: C_17  and  O_18
   13  A    between atoms: O_18  and  C_19
                            x       y       z     vdW  Elec       q    Type
                         _______ _______ _______ _____ _____    ______ ____

>  <TORSDO>
F 11

>  <SCORE>
-5.415

>  <RMSD_LB>
9.894

>  <RMSD_UB>
13.092

$$$$
CHEMBL4072624
 OpenBabel10172500233D

 22 22  0  0  1  0  0  0  0  0999 V2000
  134.8960  134.0490  153.2400 C   0  0  0  0  0  2  0  0  0  0  0  0
  134.6560  135.3780  153.9350 C   0  0  0  0  0  0  0  0  0  0  0  0
  134.0470  136.3000  153.3930 O   0  0  0  0  0  0  0  0  0  0  0  0
  135.1330  135.4860  155.3640 C   0  0  0  0  0  2  0  0  0  0  0  0
  136.2230  136.5400  155.5180 C   0  0  2  0  0  3  0  0  0  0  0  0
  136.6390  136.9530  154.2130 O   0  0  0  0  0  0  0  0  0  0  0  0
  135.9010  136.8560  153.5930 H   0  0  0  0  0  0  0  0  0  0  0  0
  137.4330  136.0110  156.2970 C   0  0  0  0  0  2  0  0  0  0  0  0
  137.1390  135.9490  157.7970 C   0  0  0  0  0  2  0  0  0  0  0  0
  135.7610  137.0680  159.5620 C   0  0  0  0  0  1  0  0  0  0  0  0
  136.6130  137.2810  158.3230 C   0  0  0  0  0  2  0  0  0  0  0  0
  135.6220  134.2690  151.9180 C   0  0  0  0  0  2  0  0  0  0  0  0
  134.6910  134.1620  150.7420 C   0  0  0  0  0  0  0  0  0  0  0  0
  133.5540  133.3530  150.8190 C   0  0  0  0  0  3  0  0  0  0  0  0
  132.6840  133.2590  149.7360 C   0  0  0  0  0  3  0  0  0  0  0  0
  132.9430  133.9720  148.5590 C   0  0  0  0  0  0  0  0  0  0  0  0
  134.0810  134.7770  148.4560 C   0  0  0  0  0  0  0  0  0  0  0  0
  134.9460  134.8620  149.5530 C   0  0  0  0  0  3  0  0  0  0  0  0
  132.0500  133.8500  147.5300 O   0  0  0  0  0  0  0  0  0  0  0  0
  131.4860  134.5660  147.3110 H   0  0  0  0  0  0  0  0  0  0  0  0
  134.4900  135.5380  147.3880 O   0  0  0  0  0  0  0  0  0  0  0  0
  134.1330  136.9110  147.3760 C   0  0  0  0  0  1  0  0  0  0  0  0
  1  2  1  0  0  0  0
  2  4  1  0  0  0  0
  3  2  2  0  0  0  0
  5  4  1  6  0  0  0
  5  8  1  0  0  0  0
  6  5  1  0  0  0  0
  7  6  1  0  0  0  0
  8  9  1  0  0  0  0
  9 11  1  0  0  0  0
 11 10  1  0  0  0  0
 12  1  1  0  0  0  0
 13 14  1  0  0  0  0
 13 12  1  0  0  0  0
 15 14  2  0  0  0  0
 16 15  1  0  0  0  0
 17 16  2  0  0  0  0
 17 18  1  0  0  0  0
 18 13  2  0  0  0  0
 19 16  1  0  0  0  0
 20 19  1  0  0  0  0
 21 17  1  0  0  0  0
 22 21  1  0  0  0  0
M  END
>  <MODEL>
5

>  <REMARK>
 VINA RESULT:    -5.394     10.644     12.346
 INTER + INTRA:         -10.521
 INTER:                  -9.595
 INTRA:                  -0.925
 UNBOUND:                -1.973
  Name = CHEMBL4072624
  13 active torsions:
  status: ('A' for Active; 'I' for Inactive)
    1  A    between atoms: C_1  and  C_2
    2  A    between atoms: C_2  and  C_3
    3  A    between atoms: C_3  and  C_4
    4  A    between atoms: C_4  and  C_5
    5  A    between atoms: C_5  and  O_6
    6  A    between atoms: C_5  and  C_7
    7  A    between atoms: C_7  and  C_8
    8  A    between atoms: C_8  and  C_10
    9  A    between atoms: C_10  and  C_11
   10  A    between atoms: C_11  and  C_12
   11  A    between atoms: C_15  and  O_16
   12  A    between atoms: C_17  and  O_18
   13  A    between atoms: O_18  and  C_19
                            x       y       z     vdW  Elec       q    Type
                         _______ _______ _______ _____ _____    ______ ____

>  <TORSDO>
F 11

>  <SCORE>
-5.394

>  <RMSD_LB>
10.644

>  <RMSD_UB>
12.346

$$$$
CHEMBL4072624
 OpenBabel10172500233D

 22 22  0  0  1  0  0  0  0  0999 V2000
  143.4770  137.5310  152.5660 C   0  0  0  0  0  2  0  0  0  0  0  0
  144.2530  138.8280  152.7060 C   0  0  0  0  0  0  0  0  0  0  0  0
  145.1450  138.9710  153.5410 O   0  0  0  0  0  0  0  0  0  0  0  0
  143.9310  139.9160  151.7090 C   0  0  0  0  0  2  0  0  0  0  0  0
  144.9940  140.0190  150.6220 C   0  0  2  0  0  3  0  0  0  0  0  0
  146.1130  139.2150  151.0070 O   0  0  0  0  0  0  0  0  0  0  0  0
  146.8140  139.7850  151.3600 H   0  0  0  0  0  0  0  0  0  0  0  0
  145.4560  141.4640  150.3990 C   0  0  0  0  0  2  0  0  0  0  0  0
  145.4660  142.2480  151.7120 C   0  0  0  0  0  2  0  0  0  0  0  0
  146.7810  141.9830  153.8260 C   0  0  0  0  0  1  0  0  0  0  0  0
  146.8570  142.2790  152.3380 C   0  0  0  0  0  2  0  0  0  0  0  0
  142.3100  137.7160  151.6020 C   0  0  0  0  0  2  0  0  0  0  0  0
  140.9980  137.8380  152.3250 C   0  0  0  0  0  0  0  0  0  0  0  0
  139.7970  137.6570  151.6330 C   0  0  0  0  0  3  0  0  0  0  0  0
  138.5790  137.7600  152.3000 C   0  0  0  0  0  3  0  0  0  0  0  0
  138.5480  138.0480  153.6700 C   0  0  0  0  0  0  0  0  0  0  0  0
  139.7360  138.2450  154.3790 C   0  0  0  0  0  0  0  0  0  0  0  0
  140.9520  138.1380  153.6940 C   0  0  0  0  0  3  0  0  0  0  0  0
  137.3230  138.1280  154.2770 O   0  0  0  0  0  0  0  0  0  0  0  0
  136.7700  137.3720  154.3160 H   0  0  0  0  0  0  0  0  0  0  0  0
  139.8920  138.5340  155.7120 O   0  0  0  0  0  0  0  0  0  0  0  0
  140.1050  137.4520  156.6060 C   0  0  0  0  0  1  0  0  0  0  0  0
  1  2  1  0  0  0  0
  2  3  2  0  0  0  0
  4  2  1  0  0  0  0
  5  8  1  1  0  0  0
  5  6  1  0  0  0  0
  5  4  1  0  0  0  0
  6  7  1  0  0  0  0
  8  9  1  0  0  0  0
  9 11  1  0  0  0  0
 11 10  1  0  0  0  0
 12 13  1  0  0  0  0
 12  1  1  0  0  0  0
 13 18  1  0  0  0  0
 14 15  1  0  0  0  0
 14 13  2  0  0  0  0
 15 16  2  0  0  0  0
 16 19  1  0  0  0  0
 16 17  1  0  0  0  0
 17 21  1  0  0  0  0
 18 17  2  0  0  0  0
 19 20  1  0  0  0  0
 21 22  1  0  0  0  0
M  END
>  <MODEL>
6

>  <REMARK>
 VINA RESULT:    -5.347      3.700      5.204
 INTER + INTRA:         -10.445
 INTER:                  -9.399
 INTRA:                  -1.046
 UNBOUND:                -1.973
  Name = CHEMBL4072624
  13 active torsions:
  status: ('A' for Active; 'I' for Inactive)
    1  A    between atoms: C_1  and  C_2
    2  A    between atoms: C_2  and  C_3
    3  A    between atoms: C_3  and  C_4
    4  A    between atoms: C_4  and  C_5
    5  A    between atoms: C_5  and  O_6
    6  A    between atoms: C_5  and  C_7
    7  A    between atoms: C_7  and  C_8
    8  A    between atoms: C_8  and  C_10
    9  A    between atoms: C_10  and  C_11
   10  A    between atoms: C_11  and  C_12
   11  A    between atoms: C_15  and  O_16
   12  A    between atoms: C_17  and  O_18
   13  A    between atoms: O_18  and  C_19
                            x       y       z     vdW  Elec       q    Type
                         _______ _______ _______ _____ _____    ______ ____

>  <TORSDO>
F 11

>  <SCORE>
-5.347

>  <RMSD_LB>
3.700

>  <RMSD_UB>
5.204

$$$$
CHEMBL4072624
 OpenBabel10172500233D

 22 22  0  0  1  0  0  0  0  0999 V2000
  147.4050  141.7650  154.1830 C   0  0  0  0  0  2  0  0  0  0  0  0
  147.9050  140.3500  154.4150 C   0  0  0  0  0  0  0  0  0  0  0  0
  149.1040  140.0820  154.4840 O   0  0  0  0  0  0  0  0  0  0  0  0
  146.8510  139.2930  154.6430 C   0  0  0  0  0  2  0  0  0  0  0  0
  147.2760  137.9410  154.0840 C   0  0  2  0  0  3  0  0  0  0  0  0
  147.8960  138.1530  152.8110 O   0  0  0  0  0  0  0  0  0  0  0  0
  147.5960  137.4730  152.1890 H   0  0  0  0  0  0  0  0  0  0  0  0
  146.0900  136.9830  153.9200 C   0  0  0  0  0  2  0  0  0  0  0  0
  144.7620  137.7420  153.9430 C   0  0  0  0  0  2  0  0  0  0  0  0
  144.7310  137.0640  151.5330 C   0  0  0  0  0  1  0  0  0  0  0  0
  143.8810  137.3690  152.7550 C   0  0  0  0  0  2  0  0  0  0  0  0
  145.9940  141.7370  153.6050 C   0  0  0  0  0  2  0  0  0  0  0  0
  146.0030  141.7090  152.1020 C   0  0  0  0  0  0  0  0  0  0  0  0
  147.0220  142.3540  151.3950 C   0  0  0  0  0  3  0  0  0  0  0  0
  147.0400  142.3230  150.0030 C   0  0  0  0  0  3  0  0  0  0  0  0
  146.0340  141.6480  149.3000 C   0  0  0  0  0  0  0  0  0  0  0  0
  144.9990  141.0080  149.9860 C   0  0  0  0  0  0  0  0  0  0  0  0
  144.9950  141.0480  151.3850 C   0  0  0  0  0  3  0  0  0  0  0  0
  146.1070  141.6420  147.9330 O   0  0  0  0  0  0  0  0  0  0  0  0
  146.6580  142.2570  147.4910 H   0  0  0  0  0  0  0  0  0  0  0  0
  143.9400  140.3070  149.4650 O   0  0  0  0  0  0  0  0  0  0  0  0
  142.8390  140.0320  150.3180 C   0  0  0  0  0  1  0  0  0  0  0  0
  1  2  1  0  0  0  0
  2  3  2  0  0  0  0
  2  4  1  0  0  0  0
  5  8  1  6  0  0  0
  5  4  1  0  0  0  0
  6  5  1  0  0  0  0
  7  6  1  0  0  0  0
  8  9  1  0  0  0  0
 10 11  1  0  0  0  0
 11  9  1  0  0  0  0
 12  1  1  0  0  0  0
 13 12  1  0  0  0  0
 14 13  1  0  0  0  0
 15 14  2  0  0  0  0
 16 17  2  0  0  0  0
 16 15  1  0  0  0  0
 17 18  1  0  0  0  0
 18 13  2  0  0  0  0
 19 16  1  0  0  0  0
 20 19  1  0  0  0  0
 21 17  1  0  0  0  0
 21 22  1  0  0  0  0
M  END
>  <MODEL>
7

>  <REMARK>
 VINA RESULT:    -5.307      1.567      3.527
 INTER + INTRA:         -10.382
 INTER:                  -8.772
 INTRA:                  -1.611
 UNBOUND:                -1.973
  Name = CHEMBL4072624
  13 active torsions:
  status: ('A' for Active; 'I' for Inactive)
    1  A    between atoms: C_1  and  C_2
    2  A    between atoms: C_2  and  C_3
    3  A    between atoms: C_3  and  C_4
    4  A    between atoms: C_4  and  C_5
    5  A    between atoms: C_5  and  O_6
    6  A    between atoms: C_5  and  C_7
    7  A    between atoms: C_7  and  C_8
    8  A    between atoms: C_8  and  C_10
    9  A    between atoms: C_10  and  C_11
   10  A    between atoms: C_11  and  C_12
   11  A    between atoms: C_15  and  O_16
   12  A    between atoms: C_17  and  O_18
   13  A    between atoms: O_18  and  C_19
                            x       y       z     vdW  Elec       q    Type
                         _______ _______ _______ _____ _____    ______ ____

>  <TORSDO>
F 11

>  <SCORE>
-5.307

>  <RMSD_LB>
1.567

>  <RMSD_UB>
3.527

$$$$
CHEMBL4072624
 OpenBabel10172500233D

 22 22  0  0  1  0  0  0  0  0999 V2000
  136.4770  136.6390  150.9240 C   0  0  0  0  0  2  0  0  0  0  0  0
  136.1120  136.0180  152.2610 C   0  0  0  0  0  0  0  0  0  0  0  0
  136.3350  136.5850  153.3290 O   0  0  0  0  0  0  0  0  0  0  0  0
  135.3820  134.6970  152.2120 C   0  0  0  0  0  2  0  0  0  0  0  0
  133.8740  134.8870  152.1120 C   0  0  2  0  0  3  0  0  0  0  0  0
  133.2840  134.4690  153.3470 O   0  0  0  0  0  0  0  0  0  0  0  0
  132.3320  134.3330  153.2210 H   0  0  0  0  0  0  0  0  0  0  0  0
  133.2640  134.0840  150.9570 C   0  0  0  0  0  2  0  0  0  0  0  0
  134.3000  133.1530  150.3250 C   0  0  0  0  0  2  0  0  0  0  0  0
  132.7210  133.5180  148.4180 C   0  0  0  0  0  1  0  0  0  0  0  0
  133.8480  132.6540  148.9570 C   0  0  0  0  0  2  0  0  0  0  0  0
  137.1250  135.5990  150.0180 C   0  0  0  0  0  2  0  0  0  0  0  0
  136.4410  135.5140  148.6810 C   0  0  0  0  0  0  0  0  0  0  0  0
  136.7960  134.5100  147.7760 C   0  0  0  0  0  3  0  0  0  0  0  0
  136.1590  134.4210  146.5400 C   0  0  0  0  0  3  0  0  0  0  0  0
  135.1600  135.3390  146.1940 C   0  0  0  0  0  0  0  0  0  0  0  0
  134.7990  136.3590  147.0800 C   0  0  0  0  0  0  0  0  0  0  0  0
  135.4480  136.4350  148.3180 C   0  0  0  0  0  3  0  0  0  0  0  0
  134.5620  135.1990  144.9720 O   0  0  0  0  0  0  0  0  0  0  0  0
  133.6760  134.8960  144.9160 H   0  0  0  0  0  0  0  0  0  0  0  0
  133.8520  137.3370  146.9080 O   0  0  0  0  0  0  0  0  0  0  0  0
  132.5230  137.0560  147.3200 C   0  0  0  0  0  1  0  0  0  0  0  0
  1  2  1  0  0  0  0
  2  3  2  0  0  0  0
  4  2  1  0  0  0  0
  5  8  1  6  0  0  0
  5  4  1  0  0  0  0
  5  6  1  0  0  0  0
  7  6  1  0  0  0  0
  9  8  1  0  0  0  0
 10 11  1  0  0  0  0
 11  9  1  0  0  0  0
 12  1  1  0  0  0  0
 13 12  1  0  0  0  0
 14 13  2  0  0  0  0
 15 14  1  0  0  0  0
 16 15  2  0  0  0  0
 16 17  1  0  0  0  0
 17 18  2  0  0  0  0
 18 13  1  0  0  0  0
 19 16  1  0  0  0  0
 20 19  1  0  0  0  0
 21 17  1  0  0  0  0
 21 22  1  0  0  0  0
M  END
>  <MODEL>
8

>  <REMARK>
 VINA RESULT:    -5.299     10.257     12.423
 INTER + INTRA:         -10.370
 INTER:                  -8.357
 INTRA:                  -2.013
 UNBOUND:                -1.973
  Name = CHEMBL4072624
  13 active torsions:
  status: ('A' for Active; 'I' for Inactive)
    1  A    between atoms: C_1  and  C_2
    2  A    between atoms: C_2  and  C_3
    3  A    between atoms: C_3  and  C_4
    4  A    between atoms: C_4  and  C_5
    5  A    between atoms: C_5  and  O_6
    6  A    between atoms: C_5  and  C_7
    7  A    between atoms: C_7  and  C_8
    8  A    between atoms: C_8  and  C_10
    9  A    between atoms: C_10  and  C_11
   10  A    between atoms: C_11  and  C_12
   11  A    between atoms: C_15  and  O_16
   12  A    between atoms: C_17  and  O_18
   13  A    between atoms: O_18  and  C_19
                            x       y       z     vdW  Elec       q    Type
                         _______ _______ _______ _____ _____    ______ ____

>  <TORSDO>
F 11

>  <SCORE>
-5.299

>  <RMSD_LB>
10.257

>  <RMSD_UB>
12.423

$$$$
CHEMBL4072624
 OpenBabel10172500233D

 22 22  0  0  1  0  0  0  0  0999 V2000
  148.5370  141.6730  152.2610 C   0  0  0  0  0  2  0  0  0  0  0  0
  148.7390  141.3290  153.7250 C   0  0  0  0  0  0  0  0  0  0  0  0
  148.9160  142.1920  154.5830 O   0  0  0  0  0  0  0  0  0  0  0  0
  148.6290  139.8680  154.0940 C   0  0  0  0  0  2  0  0  0  0  0  0
  147.3010  139.5540  154.7710 C   0  0  2  0  0  3  0  0  0  0  0  0
  147.5680  138.8110  155.9650 O   0  0  0  0  0  0  0  0  0  0  0  0
  148.0680  138.0110  155.7420 H   0  0  0  0  0  0  0  0  0  0  0  0
  146.3660  138.7450  153.8650 C   0  0  0  0  0  2  0  0  0  0  0  0
  147.1350  137.6610  153.1080 C   0  0  0  0  0  2  0  0  0  0  0  0
  144.7660  137.2570  152.4070 C   0  0  0  0  0  1  0  0  0  0  0  0
  146.1960  136.7540  152.3170 C   0  0  0  0  0  2  0  0  0  0  0  0
  147.0890  142.0770  152.0080 C   0  0  0  0  0  2  0  0  0  0  0  0
  146.3930  141.1210  151.0790 C   0  0  0  0  0  0  0  0  0  0  0  0
  147.1350  140.1890  150.3490 C   0  0  0  0  0  3  0  0  0  0  0  0
  146.4950  139.2950  149.4940 C   0  0  0  0  0  3  0  0  0  0  0  0
  145.1010  139.3260  149.3570 C   0  0  0  0  0  0  0  0  0  0  0  0
  144.3410  140.2580  150.0680 C   0  0  0  0  0  0  0  0  0  0  0  0
  144.9990  141.1490  150.9230 C   0  0  0  0  0  3  0  0  0  0  0  0
  144.5240  138.4180  148.5100 O   0  0  0  0  0  0  0  0  0  0  0  0
  143.8100  138.6790  147.9620 H   0  0  0  0  0  0  0  0  0  0  0  0
  142.9790  140.4310  150.0560 O   0  0  0  0  0  0  0  0  0  0  0  0
  142.2000  139.6370  150.9370 C   0  0  0  0  0  1  0  0  0  0  0  0
  1  2  1  0  0  0  0
  2  4  1  0  0  0  0
  2  3  2  0  0  0  0
  4  5  1  0  0  0  0
  5  8  1  6  0  0  0
  5  6  1  0  0  0  0
  7  6  1  0  0  0  0
  9  8  1  0  0  0  0
 11 10  1  0  0  0  0
 11  9  1  0  0  0  0
 12  1  1  0  0  0  0
 13 12  1  0  0  0  0
 14 13  2  0  0  0  0
 15 14  1  0  0  0  0
 16 15  2  0  0  0  0
 16 17  1  0  0  0  0
 17 18  2  0  0  0  0
 18 13  1  0  0  0  0
 19 16  1  0  0  0  0
 20 19  1  0  0  0  0
 21 17  1  0  0  0  0
 21 22  1  0  0  0  0
M  END
>  <MODEL>
9

>  <REMARK>
 VINA RESULT:    -5.130      1.349      3.342
 INTER + INTRA:         -10.102
 INTER:                  -8.129
 INTRA:                  -1.973
 UNBOUND:                -1.973
  Name = CHEMBL4072624
  13 active torsions:
  status: ('A' for Active; 'I' for Inactive)
    1  A    between atoms: C_1  and  C_2
    2  A    between atoms: C_2  and  C_3
    3  A    between atoms: C_3  and  C_4
    4  A    between atoms: C_4  and  C_5
    5  A    between atoms: C_5  and  O_6
    6  A    between atoms: C_5  and  C_7
    7  A    between atoms: C_7  and  C_8
    8  A    between atoms: C_8  and  C_10
    9  A    between atoms: C_10  and  C_11
   10  A    between atoms: C_11  and  C_12
   11  A    between atoms: C_15  and  O_16
   12  A    between atoms: C_17  and  O_18
   13  A    between atoms: O_18  and  C_19
                            x       y       z     vdW  Elec       q    Type
                         _______ _______ _______ _____ _____    ______ ____

>  <TORSDO>
F 11

>  <SCORE>
-5.130

>  <RMSD_LB>
1.349

>  <RMSD_UB>
3.342

$$$$
