CHEMBL2314229
 OpenBabel10172500273D

 21 21  0  0  0  0  0  0  0  0999 V2000
  138.1310  136.9020  156.3480 C   0  0  0  0  0  2  0  0  0  0  0  0
  134.8150  135.0440  155.6980 C   0  0  0  0  0  0  0  0  0  0  0  0
  135.9950  135.7680  155.4920 C   0  0  0  0  0  3  0  0  0  0  0  0
  136.8270  136.1510  156.5590 C   0  0  0  0  0  0  0  0  0  0  0  0
  136.4670  135.7440  157.8540 C   0  0  0  0  0  3  0  0  0  0  0  0
  135.2970  135.0150  158.0780 C   0  0  0  0  0  3  0  0  0  0  0  0
  134.4740  134.6770  157.0030 C   0  0  0  0  0  0  0  0  0  0  0  0
  134.4700  133.7850  153.7020 C   0  0  0  0  0  1  0  0  0  0  0  0
  133.9540  134.6550  154.7040 O   0  0  0  0  0  0  0  0  0  0  0  0
  133.3230  133.9680  157.2210 O   0  0  0  0  0  0  0  0  0  0  0  0
  132.5740  134.3940  157.5890 H   0  0  0  0  0  0  0  0  0  0  0  0
  138.0920  138.0210  155.3120 C   0  0  0  0  0  0  0  0  0  0  0  0
  137.2140  138.8840  155.3110 O   0  0  0  0  0  0  0  0  0  0  0  0
  139.0990  138.0150  154.3720 N   0  0  0  0  0  0  0  0  0  0  0  0
  139.7750  137.2990  154.3720 H   0  0  0  0  0  0  0  0  0  0  0  0
  139.1530  139.0730  153.3810 C   0  0  0  0  0  2  0  0  0  0  0  0
  139.2180  138.5820  151.9250 C   0  0  0  0  0  2  0  0  0  0  0  0
  138.5730  139.4610  150.9240 N   0  0  0  0  0  4  0  0  0  0  0  0
  139.4980  140.4860  150.4270 C   0  0  0  0  0  1  0  0  0  0  0  0
  138.1120  138.6460  149.7910 C   0  0  0  0  0  1  0  0  0  0  0  0
  137.7890  139.9310  151.3760 H   0  0  0  0  0  0  0  0  0  0  0  0
  1  4  1  0  0  0  0
  2  7  1  0  0  0  0
  3  2  2  0  0  0  0
  3  4  1  0  0  0  0
  4  5  2  0  0  0  0
  5  6  1  0  0  0  0
  7 10  1  0  0  0  0
  7  6  2  0  0  0  0
  8  9  1  0  0  0  0
  9  2  1  0  0  0  0
 10 11  1  0  0  0  0
 12  1  1  0  0  0  0
 13 12  2  0  0  0  0
 14 12  1  0  0  0  0
 15 14  1  0  0  0  0
 16 14  1  0  0  0  0
 17 16  1  0  0  0  0
 18 21  1  0  0  0  0
 18 17  1  0  0  0  0
 19 18  1  0  0  0  0
 20 18  1  0  0  0  0
M  END
>  <MODEL>
1

>  <REMARK>
 VINA RESULT:    -6.123      0.000      0.000
 INTER + INTRA:          -8.885
 INTER:                  -8.552
 INTRA:                  -0.333
 UNBOUND:                -0.435
  Name = CHEMBL2314229
  10 active torsions:
  status: ('A' for Active; 'I' for Inactive)
    1  A    between atoms: C_1  and  O_2
    2  A    between atoms: O_2  and  C_3
    3  A    between atoms: C_5  and  C_6
    4  A    between atoms: C_6  and  C_7
    5  A    between atoms: N_9  and  C_10
    6  A    between atoms: C_10  and  C_11
    7  A    between atoms: C_11  and  N_12
    8  A    between atoms: N_12  and  C_13
    9  A    between atoms: N_12  and  C_14
   10  A    between atoms: C_17  and  O_18
                            x       y       z     vdW  Elec       q    Type
                         _______ _______ _______ _____ _____    ______ ____

>  <TORSDO>
F 7

>  <SCORE>
-6.123

>  <RMSD_LB>
0.000

>  <RMSD_UB>
0.000

$$$$
CHEMBL2314229
 OpenBabel10172500273D

 21 21  0  0  0  0  0  0  0  0999 V2000
  134.6030  134.2400  154.8430 C   0  0  0  0  0  2  0  0  0  0  0  0
  136.4880  137.4590  155.8230 C   0  0  0  0  0  0  0  0  0  0  0  0
  135.8280  136.4840  155.0660 C   0  0  0  0  0  3  0  0  0  0  0  0
  135.3570  135.2900  155.6430 C   0  0  0  0  0  0  0  0  0  0  0  0
  135.5240  135.1160  157.0250 C   0  0  0  0  0  3  0  0  0  0  0  0
  136.1740  136.0820  157.7980 C   0  0  0  0  0  3  0  0  0  0  0  0
  136.6590  137.2410  157.1930 C   0  0  0  0  0  0  0  0  0  0  0  0
  138.2100  138.5640  154.5960 C   0  0  0  0  0  1  0  0  0  0  0  0
  136.9840  138.6340  155.3190 O   0  0  0  0  0  0  0  0  0  0  0  0
  137.3030  138.1870  157.9470 O   0  0  0  0  0  0  0  0  0  0  0  0
  136.8910  139.0110  158.1150 H   0  0  0  0  0  0  0  0  0  0  0  0
  134.6210  134.4210  153.3290 C   0  0  0  0  0  0  0  0  0  0  0  0
  135.6150  134.1680  152.6490 O   0  0  0  0  0  0  0  0  0  0  0  0
  133.4560  134.8870  152.7590 N   0  0  0  0  0  0  0  0  0  0  0  0
  132.6810  135.1120  153.3230 H   0  0  0  0  0  0  0  0  0  0  0  0
  133.3820  135.0420  151.3180 C   0  0  0  0  0  2  0  0  0  0  0  0
  132.4430  134.0470  150.6160 C   0  0  0  0  0  2  0  0  0  0  0  0
  132.8560  133.6280  149.2570 N   0  0  0  0  0  4  0  0  0  0  0  0
  133.1200  134.7820  148.3910 C   0  0  0  0  0  1  0  0  0  0  0  0
  134.0760  132.8140  149.3530 C   0  0  0  0  0  1  0  0  0  0  0  0
  132.0920  133.0890  148.8480 H   0  0  0  0  0  0  0  0  0  0  0  0
  1  4  1  0  0  0  0
  2  7  1  0  0  0  0
  3  4  1  0  0  0  0
  3  2  2  0  0  0  0
  4  5  2  0  0  0  0
  5  6  1  0  0  0  0
  7  6  2  0  0  0  0
  7 10  1  0  0  0  0
  8  9  1  0  0  0  0
  9  2  1  0  0  0  0
 10 11  1  0  0  0  0
 12  1  1  0  0  0  0
 13 12  2  0  0  0  0
 14 15  1  0  0  0  0
 14 12  1  0  0  0  0
 16 14  1  0  0  0  0
 17 16  1  0  0  0  0
 18 20  1  0  0  0  0
 18 17  1  0  0  0  0
 19 18  1  0  0  0  0
 21 18  1  0  0  0  0
M  END
>  <MODEL>
2

>  <REMARK>
 VINA RESULT:    -5.872      3.423      5.636
 INTER + INTRA:          -8.538
 INTER:                  -8.180
 INTRA:                  -0.358
 UNBOUND:                -0.435
  Name = CHEMBL2314229
  10 active torsions:
  status: ('A' for Active; 'I' for Inactive)
    1  A    between atoms: C_1  and  O_2
    2  A    between atoms: O_2  and  C_3
    3  A    between atoms: C_5  and  C_6
    4  A    between atoms: C_6  and  C_7
    5  A    between atoms: N_9  and  C_10
    6  A    between atoms: C_10  and  C_11
    7  A    between atoms: C_11  and  N_12
    8  A    between atoms: N_12  and  C_13
    9  A    between atoms: N_12  and  C_14
   10  A    between atoms: C_17  and  O_18
                            x       y       z     vdW  Elec       q    Type
                         _______ _______ _______ _____ _____    ______ ____

>  <TORSDO>
F 7

>  <SCORE>
-5.872

>  <RMSD_LB>
3.423

>  <RMSD_UB>
5.636

$$$$
CHEMBL2314229
 OpenBabel10172500273D

 21 21  0  0  0  0  0  0  0  0999 V2000
  138.2160  136.7410  156.4300 C   0  0  0  0  0  2  0  0  0  0  0  0
  135.1900  135.0790  158.1480 C   0  0  0  0  0  0  0  0  0  0  0  0
  136.4060  135.7430  157.9500 C   0  0  0  0  0  3  0  0  0  0  0  0
  136.9180  135.9860  156.6630 C   0  0  0  0  0  0  0  0  0  0  0  0
  136.1460  135.5850  155.5610 C   0  0  0  0  0  3  0  0  0  0  0  0
  134.9260  134.9280  155.7390 C   0  0  0  0  0  3  0  0  0  0  0  0
  134.4590  134.6720  157.0280 C   0  0  0  0  0  0  0  0  0  0  0  0
  134.0250  135.8730  160.0730 C   0  0  0  0  0  1  0  0  0  0  0  0
  134.6450  134.7970  159.3750 O   0  0  0  0  0  0  0  0  0  0  0  0
  133.2670  134.0210  157.2060 O   0  0  0  0  0  0  0  0  0  0  0  0
  133.0130  133.7350  158.0610 H   0  0  0  0  0  0  0  0  0  0  0  0
  138.1180  137.9640  155.5250 C   0  0  0  0  0  0  0  0  0  0  0  0
  137.1880  138.7660  155.6030 O   0  0  0  0  0  0  0  0  0  0  0  0
  139.1350  138.1250  154.6090 N   0  0  0  0  0  0  0  0  0  0  0  0
  139.8560  137.4560  154.5430 H   0  0  0  0  0  0  0  0  0  0  0  0
  139.1350  139.2890  153.7430 C   0  0  0  0  0  2  0  0  0  0  0  0
  139.5230  138.9980  152.2830 C   0  0  0  0  0  2  0  0  0  0  0  0
  139.3190  137.6030  151.8320 N   0  0  0  0  0  4  0  0  0  0  0  0
  137.9870  137.4110  151.2480 C   0  0  0  0  0  1  0  0  0  0  0  0
  140.3350  137.2680  150.8240 C   0  0  0  0  0  1  0  0  0  0  0  0
  139.4020  136.9940  152.6470 H   0  0  0  0  0  0  0  0  0  0  0  0
  1  4  1  0  0  0  0
  2  9  1  0  0  0  0
  3  2  1  0  0  0  0
  4  3  2  0  0  0  0
  5  6  2  0  0  0  0
  5  4  1  0  0  0  0
  6  7  1  0  0  0  0
  7 10  1  0  0  0  0
  7  2  2  0  0  0  0
  9  8  1  0  0  0  0
 10 11  1  0  0  0  0
 12 13  2  0  0  0  0
 12  1  1  0  0  0  0
 14 12  1  0  0  0  0
 15 14  1  0  0  0  0
 16 14  1  0  0  0  0
 17 16  1  0  0  0  0
 18 17  1  0  0  0  0
 18 21  1  0  0  0  0
 19 18  1  0  0  0  0
 20 18  1  0  0  0  0
M  END
>  <MODEL>
3

>  <REMARK>
 VINA RESULT:    -5.835      1.246      2.548
 INTER + INTRA:          -8.487
 INTER:                  -8.096
 INTRA:                  -0.391
 UNBOUND:                -0.435
  Name = CHEMBL2314229
  10 active torsions:
  status: ('A' for Active; 'I' for Inactive)
    1  A    between atoms: C_1  and  O_2
    2  A    between atoms: O_2  and  C_3
    3  A    between atoms: C_5  and  C_6
    4  A    between atoms: C_6  and  C_7
    5  A    between atoms: N_9  and  C_10
    6  A    between atoms: C_10  and  C_11
    7  A    between atoms: C_11  and  N_12
    8  A    between atoms: N_12  and  C_13
    9  A    between atoms: N_12  and  C_14
   10  A    between atoms: C_17  and  O_18
                            x       y       z     vdW  Elec       q    Type
                         _______ _______ _______ _____ _____    ______ ____

>  <TORSDO>
F 7

>  <SCORE>
-5.835

>  <RMSD_LB>
1.246

>  <RMSD_UB>
2.548

$$$$
CHEMBL2314229
 OpenBabel10172500273D

 21 21  0  0  0  0  0  0  0  0999 V2000
  135.8470  134.9400  153.6100 C   0  0  0  0  0  2  0  0  0  0  0  0
  137.5960  137.7980  155.5180 C   0  0  0  0  0  0  0  0  0  0  0  0
  137.1570  136.9660  154.4820 C   0  0  0  0  0  3  0  0  0  0  0  0
  136.3650  135.8300  154.7280 C   0  0  0  0  0  0  0  0  0  0  0  0
  135.9770  135.5710  156.0520 C   0  0  0  0  0  3  0  0  0  0  0  0
  136.3990  136.3950  157.0980 C   0  0  0  0  0  3  0  0  0  0  0  0
  137.2110  137.4970  156.8280 C   0  0  0  0  0  0  0  0  0  0  0  0
  139.4160  138.8300  154.3710 C   0  0  0  0  0  1  0  0  0  0  0  0
  138.3820  138.9100  155.3480 O   0  0  0  0  0  0  0  0  0  0  0  0
  137.6330  138.3020  157.8530 O   0  0  0  0  0  0  0  0  0  0  0  0
  137.9310  137.9210  158.6550 H   0  0  0  0  0  0  0  0  0  0  0  0
  134.5470  135.3910  152.9530 C   0  0  0  0  0  0  0  0  0  0  0  0
  133.9780  136.4350  153.2700 O   0  0  0  0  0  0  0  0  0  0  0  0
  134.0400  134.5610  151.9760 N   0  0  0  0  0  0  0  0  0  0  0  0
  134.4950  133.7150  151.7570 H   0  0  0  0  0  0  0  0  0  0  0  0
  132.8300  134.9450  151.2740 C   0  0  0  0  0  2  0  0  0  0  0  0
  132.8360  134.6270  149.7690 C   0  0  0  0  0  2  0  0  0  0  0  0
  133.3990  135.6800  148.8950 N   0  0  0  0  0  4  0  0  0  0  0  0
  133.1750  135.3830  147.4760 C   0  0  0  0  0  1  0  0  0  0  0  0
  132.7660  136.9660  149.2190 C   0  0  0  0  0  1  0  0  0  0  0  0
  134.4060  135.7200  149.0580 H   0  0  0  0  0  0  0  0  0  0  0  0
  1  4  1  0  0  0  0
  2  7  1  0  0  0  0
  3  4  1  0  0  0  0
  3  2  2  0  0  0  0
  4  5  2  0  0  0  0
  5  6  1  0  0  0  0
  7  6  2  0  0  0  0
  7 10  1  0  0  0  0
  8  9  1  0  0  0  0
  9  2  1  0  0  0  0
 10 11  1  0  0  0  0
 12 13  2  0  0  0  0
 12  1  1  0  0  0  0
 14 12  1  0  0  0  0
 15 14  1  0  0  0  0
 16 14  1  0  0  0  0
 17 16  1  0  0  0  0
 18 21  1  0  0  0  0
 18 20  1  0  0  0  0
 18 17  1  0  0  0  0
 19 18  1  0  0  0  0
M  END
>  <MODEL>
4

>  <REMARK>
 VINA RESULT:    -5.809      3.468      5.536
 INTER + INTRA:          -8.451
 INTER:                  -8.099
 INTRA:                  -0.352
 UNBOUND:                -0.435
  Name = CHEMBL2314229
  10 active torsions:
  status: ('A' for Active; 'I' for Inactive)
    1  A    between atoms: C_1  and  O_2
    2  A    between atoms: O_2  and  C_3
    3  A    between atoms: C_5  and  C_6
    4  A    between atoms: C_6  and  C_7
    5  A    between atoms: N_9  and  C_10
    6  A    between atoms: C_10  and  C_11
    7  A    between atoms: C_11  and  N_12
    8  A    between atoms: N_12  and  C_13
    9  A    between atoms: N_12  and  C_14
   10  A    between atoms: C_17  and  O_18
                            x       y       z     vdW  Elec       q    Type
                         _______ _______ _______ _____ _____    ______ ____

>  <TORSDO>
F 7

>  <SCORE>
-5.809

>  <RMSD_LB>
3.468

>  <RMSD_UB>
5.536

$$$$
CHEMBL2314229
 OpenBabel10172500273D

 21 21  0  0  0  0  0  0  0  0999 V2000
  135.4900  135.1610  154.0310 C   0  0  0  0  0  2  0  0  0  0  0  0
  137.6860  137.8070  155.7770 C   0  0  0  0  0  0  0  0  0  0  0  0
  136.7430  136.7950  155.5610 C   0  0  0  0  0  3  0  0  0  0  0  0
  136.4810  136.2870  154.2760 C   0  0  0  0  0  0  0  0  0  0  0  0
  137.2330  136.7890  153.2030 C   0  0  0  0  0  3  0  0  0  0  0  0
  138.1850  137.7940  153.4010 C   0  0  0  0  0  3  0  0  0  0  0  0
  138.4000  138.3020  154.6820 C   0  0  0  0  0  0  0  0  0  0  0  0
  137.3740  137.7540  158.1420 C   0  0  0  0  0  1  0  0  0  0  0  0
  137.9760  138.3560  157.0000 O   0  0  0  0  0  0  0  0  0  0  0  0
  139.3270  139.2910  154.8770 O   0  0  0  0  0  0  0  0  0  0  0  0
  139.2530  140.1010  154.4110 H   0  0  0  0  0  0  0  0  0  0  0  0
  134.3390  135.4870  153.0860 C   0  0  0  0  0  0  0  0  0  0  0  0
  133.9210  136.6340  152.9300 O   0  0  0  0  0  0  0  0  0  0  0  0
  133.7860  134.4200  152.4110 N   0  0  0  0  0  0  0  0  0  0  0  0
  134.1150  133.5050  152.5720 H   0  0  0  0  0  0  0  0  0  0  0  0
  132.7160  134.6560  151.4600 C   0  0  0  0  0  2  0  0  0  0  0  0
  132.7120  133.7030  150.2530 C   0  0  0  0  0  2  0  0  0  0  0  0
  133.3560  134.2230  149.0250 N   0  0  0  0  0  4  0  0  0  0  0  0
  132.7660  133.6390  147.8150 C   0  0  0  0  0  1  0  0  0  0  0  0
  133.1940  135.6830  148.9770 C   0  0  0  0  0  1  0  0  0  0  0  0
  134.3430  133.9680  149.0550 H   0  0  0  0  0  0  0  0  0  0  0  0
  1  4  1  0  0  0  0
  2  9  1  0  0  0  0
  3  2  1  0  0  0  0
  4  3  2  0  0  0  0
  5  6  2  0  0  0  0
  5  4  1  0  0  0  0
  6  7  1  0  0  0  0
  7 10  1  0  0  0  0
  7  2  2  0  0  0  0
  9  8  1  0  0  0  0
 11 10  1  0  0  0  0
 12  1  1  0  0  0  0
 13 12  2  0  0  0  0
 14 15  1  0  0  0  0
 14 12  1  0  0  0  0
 16 14  1  0  0  0  0
 17 16  1  0  0  0  0
 18 21  1  0  0  0  0
 18 17  1  0  0  0  0
 19 18  1  0  0  0  0
 20 18  1  0  0  0  0
M  END
>  <MODEL>
5

>  <REMARK>
 VINA RESULT:    -5.767      3.591      6.231
 INTER + INTRA:          -8.394
 INTER:                  -8.071
 INTRA:                  -0.323
 UNBOUND:                -0.435
  Name = CHEMBL2314229
  10 active torsions:
  status: ('A' for Active; 'I' for Inactive)
    1  A    between atoms: C_1  and  O_2
    2  A    between atoms: O_2  and  C_3
    3  A    between atoms: C_5  and  C_6
    4  A    between atoms: C_6  and  C_7
    5  A    between atoms: N_9  and  C_10
    6  A    between atoms: C_10  and  C_11
    7  A    between atoms: C_11  and  N_12
    8  A    between atoms: N_12  and  C_13
    9  A    between atoms: N_12  and  C_14
   10  A    between atoms: C_17  and  O_18
                            x       y       z     vdW  Elec       q    Type
                         _______ _______ _______ _____ _____    ______ ____

>  <TORSDO>
F 7

>  <SCORE>
-5.767

>  <RMSD_LB>
3.591

>  <RMSD_UB>
6.231

$$$$
CHEMBL2314229
 OpenBabel10172500273D

 21 21  0  0  0  0  0  0  0  0999 V2000
  143.1020  137.5110  152.4870 C   0  0  0  0  0  2  0  0  0  0  0  0
  139.9750  138.2430  154.6210 C   0  0  0  0  0  0  0  0  0  0  0  0
  141.3060  138.0360  154.2420 C   0  0  0  0  0  3  0  0  0  0  0  0
  141.6580  137.7000  152.9230 C   0  0  0  0  0  0  0  0  0  0  0  0
  140.6340  137.6230  151.9660 C   0  0  0  0  0  3  0  0  0  0  0  0
  139.3000  137.8350  152.3240 C   0  0  0  0  0  3  0  0  0  0  0  0
  138.9770  138.1350  153.6480 C   0  0  0  0  0  0  0  0  0  0  0  0
  139.4780  137.4870  156.8280 C   0  0  0  0  0  1  0  0  0  0  0  0
  139.5640  138.5570  155.8920 O   0  0  0  0  0  0  0  0  0  0  0  0
  137.6690  138.3360  154.0030 O   0  0  0  0  0  0  0  0  0  0  0  0
  137.0080  138.3900  153.3420 H   0  0  0  0  0  0  0  0  0  0  0  0
  143.9200  138.7890  152.3340 C   0  0  0  0  0  0  0  0  0  0  0  0
  143.4560  139.8090  151.8240 O   0  0  0  0  0  0  0  0  0  0  0  0
  145.2160  138.7410  152.8010 N   0  0  0  0  0  0  0  0  0  0  0  0
  145.5780  137.9060  153.1790 H   0  0  0  0  0  0  0  0  0  0  0  0
  146.0430  139.9310  152.7300 C   0  0  0  0  0  2  0  0  0  0  0  0
  146.0740  140.7640  154.0230 C   0  0  0  0  0  2  0  0  0  0  0  0
  147.3910  140.8590  154.6920 N   0  0  0  0  0  4  0  0  0  0  0  0
  148.0670  139.5580  154.7440 C   0  0  0  0  0  1  0  0  0  0  0  0
  148.2390  141.8070  153.9560 C   0  0  0  0  0  1  0  0  0  0  0  0
  147.2360  141.1770  155.6490 H   0  0  0  0  0  0  0  0  0  0  0  0
  1  4  1  0  0  0  0
  2  9  1  0  0  0  0
  3  2  1  0  0  0  0
  4  3  2  0  0  0  0
  5  6  2  0  0  0  0
  5  4  1  0  0  0  0
  6  7  1  0  0  0  0
  7 10  1  0  0  0  0
  7  2  2  0  0  0  0
  9  8  1  0  0  0  0
 11 10  1  0  0  0  0
 12  1  1  0  0  0  0
 12 14  1  0  0  0  0
 13 12  2  0  0  0  0
 14 15  1  0  0  0  0
 16 14  1  0  0  0  0
 16 17  1  0  0  0  0
 17 18  1  0  0  0  0
 18 19  1  0  0  0  0
 18 21  1  0  0  0  0
 20 18  1  0  0  0  0
M  END
>  <MODEL>
6

>  <REMARK>
 VINA RESULT:    -5.730      5.334      7.492
 INTER + INTRA:          -8.342
 INTER:                  -7.959
 INTRA:                  -0.383
 UNBOUND:                -0.435
  Name = CHEMBL2314229
  10 active torsions:
  status: ('A' for Active; 'I' for Inactive)
    1  A    between atoms: C_1  and  O_2
    2  A    between atoms: O_2  and  C_3
    3  A    between atoms: C_5  and  C_6
    4  A    between atoms: C_6  and  C_7
    5  A    between atoms: N_9  and  C_10
    6  A    between atoms: C_10  and  C_11
    7  A    between atoms: C_11  and  N_12
    8  A    between atoms: N_12  and  C_13
    9  A    between atoms: N_12  and  C_14
   10  A    between atoms: C_17  and  O_18
                            x       y       z     vdW  Elec       q    Type
                         _______ _______ _______ _____ _____    ______ ____

>  <TORSDO>
F 7

>  <SCORE>
-5.730

>  <RMSD_LB>
5.334

>  <RMSD_UB>
7.492

$$$$
CHEMBL2314229
 OpenBabel10172500273D

 21 21  0  0  0  0  0  0  0  0999 V2000
  135.5460  135.4800  155.6930 C   0  0  0  0  0  2  0  0  0  0  0  0
  138.3350  137.8380  154.4570 C   0  0  0  0  0  0  0  0  0  0  0  0
  137.1810  137.0480  154.4880 C   0  0  0  0  0  3  0  0  0  0  0  0
  136.8180  136.3110  155.6290 C   0  0  0  0  0  0  0  0  0  0  0  0
  137.6250  136.4230  156.7720 C   0  0  0  0  0  3  0  0  0  0  0  0
  138.7770  137.2140  156.7610 C   0  0  0  0  0  3  0  0  0  0  0  0
  139.1310  137.9090  155.6040 C   0  0  0  0  0  0  0  0  0  0  0  0
  139.2220  137.8380  152.2420 C   0  0  0  0  0  1  0  0  0  0  0  0
  138.7540  138.5670  153.3720 O   0  0  0  0  0  0  0  0  0  0  0  0
  140.2630  138.6780  155.5890 O   0  0  0  0  0  0  0  0  0  0  0  0
  140.3540  139.3910  156.1900 H   0  0  0  0  0  0  0  0  0  0  0  0
  134.6620  135.5270  154.4510 C   0  0  0  0  0  0  0  0  0  0  0  0
  133.9200  136.4790  154.2090 O   0  0  0  0  0  0  0  0  0  0  0  0
  134.7370  134.4390  153.6100 N   0  0  0  0  0  0  0  0  0  0  0  0
  135.3150  133.6730  153.8370 H   0  0  0  0  0  0  0  0  0  0  0  0
  133.9580  134.4300  152.3860 C   0  0  0  0  0  2  0  0  0  0  0  0
  134.7210  134.9130  151.1400 C   0  0  0  0  0  2  0  0  0  0  0  0
  134.1930  136.1410  150.5030 N   0  0  0  0  0  4  0  0  0  0  0  0
  134.6080  136.2450  149.1000 C   0  0  0  0  0  1  0  0  0  0  0  0
  132.7260  136.1250  150.5660 C   0  0  0  0  0  1  0  0  0  0  0  0
  134.5690  136.9440  151.0080 H   0  0  0  0  0  0  0  0  0  0  0  0
  2  3  2  0  0  0  0
  2  7  1  0  0  0  0
  3  4  1  0  0  0  0
  4  1  1  0  0  0  0
  4  5  2  0  0  0  0
  6  5  1  0  0  0  0
  7  6  2  0  0  0  0
  8  9  1  0  0  0  0
  9  2  1  0  0  0  0
 10  7  1  0  0  0  0
 10 11  1  0  0  0  0
 12  1  1  0  0  0  0
 13 12  2  0  0  0  0
 14 15  1  0  0  0  0
 14 12  1  0  0  0  0
 16 14  1  0  0  0  0
 17 16  1  0  0  0  0
 18 20  1  0  0  0  0
 18 21  1  0  0  0  0
 18 17  1  0  0  0  0
 19 18  1  0  0  0  0
M  END
>  <MODEL>
7

>  <REMARK>
 VINA RESULT:    -5.547      2.776      5.316
 INTER + INTRA:          -8.090
 INTER:                  -7.626
 INTRA:                  -0.464
 UNBOUND:                -0.435
  Name = CHEMBL2314229
  10 active torsions:
  status: ('A' for Active; 'I' for Inactive)
    1  A    between atoms: C_1  and  O_2
    2  A    between atoms: O_2  and  C_3
    3  A    between atoms: C_5  and  C_6
    4  A    between atoms: C_6  and  C_7
    5  A    between atoms: N_9  and  C_10
    6  A    between atoms: C_10  and  C_11
    7  A    between atoms: C_11  and  N_12
    8  A    between atoms: N_12  and  C_13
    9  A    between atoms: N_12  and  C_14
   10  A    between atoms: C_17  and  O_18
                            x       y       z     vdW  Elec       q    Type
                         _______ _______ _______ _____ _____    ______ ____

>  <TORSDO>
F 7

>  <SCORE>
-5.547

>  <RMSD_LB>
2.776

>  <RMSD_UB>
5.316

$$$$
CHEMBL2314229
 OpenBabel10172500273D

 21 21  0  0  0  0  0  0  0  0999 V2000
  136.0600  135.4460  152.7360 C   0  0  0  0  0  2  0  0  0  0  0  0
  136.2320  135.9140  156.5590 C   0  0  0  0  0  0  0  0  0  0  0  0
  136.5170  136.0230  155.1930 C   0  0  0  0  0  3  0  0  0  0  0  0
  135.7890  135.3080  154.2250 C   0  0  0  0  0  0  0  0  0  0  0  0
  134.7210  134.5080  154.6600 C   0  0  0  0  0  3  0  0  0  0  0  0
  134.4170  134.3940  156.0190 C   0  0  0  0  0  3  0  0  0  0  0  0
  135.1770  135.0890  156.9600 C   0  0  0  0  0  0  0  0  0  0  0  0
  137.6250  137.7470  157.1850 C   0  0  0  0  0  1  0  0  0  0  0  0
  136.9130  136.5700  157.5530 O   0  0  0  0  0  0  0  0  0  0  0  0
  134.8860  134.9740  158.2940 O   0  0  0  0  0  0  0  0  0  0  0  0
  134.1800  135.4660  158.6630 H   0  0  0  0  0  0  0  0  0  0  0  0
  134.8840  135.1320  151.8170 C   0  0  0  0  0  0  0  0  0  0  0  0
  134.7680  134.0480  151.2450 O   0  0  0  0  0  0  0  0  0  0  0  0
  133.9510  136.1340  151.6600 N   0  0  0  0  0  0  0  0  0  0  0  0
  134.0760  137.0050  152.1030 H   0  0  0  0  0  0  0  0  0  0  0  0
  132.7810  135.8940  150.8360 C   0  0  0  0  0  2  0  0  0  0  0  0
  132.6480  136.8350  149.6260 C   0  0  0  0  0  2  0  0  0  0  0  0
  133.2630  136.3510  148.3700 N   0  0  0  0  0  4  0  0  0  0  0  0
  133.0280  134.9170  148.1680 C   0  0  0  0  0  1  0  0  0  0  0  0
  132.6910  137.0920  147.2370 C   0  0  0  0  0  1  0  0  0  0  0  0
  134.2700  136.5050  148.4320 H   0  0  0  0  0  0  0  0  0  0  0  0
  1  4  1  0  0  0  0
  2  7  1  0  0  0  0
  2  9  1  0  0  0  0
  3  2  2  0  0  0  0
  4  5  2  0  0  0  0
  4  3  1  0  0  0  0
  5  6  1  0  0  0  0
  6  7  2  0  0  0  0
  7 10  1  0  0  0  0
  8  9  1  0  0  0  0
 10 11  1  0  0  0  0
 12  1  1  0  0  0  0
 13 12  2  0  0  0  0
 14 12  1  0  0  0  0
 14 15  1  0  0  0  0
 16 14  1  0  0  0  0
 17 16  1  0  0  0  0
 18 21  1  0  0  0  0
 18 17  1  0  0  0  0
 19 18  1  0  0  0  0
 20 18  1  0  0  0  0
M  END
>  <MODEL>
8

>  <REMARK>
 VINA RESULT:    -5.491      3.662      5.260
 INTER + INTRA:          -8.012
 INTER:                  -7.577
 INTRA:                  -0.435
 UNBOUND:                -0.435
  Name = CHEMBL2314229
  10 active torsions:
  status: ('A' for Active; 'I' for Inactive)
    1  A    between atoms: C_1  and  O_2
    2  A    between atoms: O_2  and  C_3
    3  A    between atoms: C_5  and  C_6
    4  A    between atoms: C_6  and  C_7
    5  A    between atoms: N_9  and  C_10
    6  A    between atoms: C_10  and  C_11
    7  A    between atoms: C_11  and  N_12
    8  A    between atoms: N_12  and  C_13
    9  A    between atoms: N_12  and  C_14
   10  A    between atoms: C_17  and  O_18
                            x       y       z     vdW  Elec       q    Type
                         _______ _______ _______ _____ _____    ______ ____

>  <TORSDO>
F 7

>  <SCORE>
-5.491

>  <RMSD_LB>
3.662

>  <RMSD_UB>
5.260

$$$$
CHEMBL2314229
 OpenBabel10172500273D

 21 21  0  0  0  0  0  0  0  0999 V2000
  146.7170  141.9720  149.8410 C   0  0  0  0  0  2  0  0  0  0  0  0
  147.1270  140.9710  153.5420 C   0  0  0  0  0  0  0  0  0  0  0  0
  146.5710  141.1690  152.2730 C   0  0  0  0  0  3  0  0  0  0  0  0
  147.2920  141.7860  151.2350 C   0  0  0  0  0  0  0  0  0  0  0  0
  148.6210  142.1620  151.4880 C   0  0  0  0  0  3  0  0  0  0  0  0
  149.1950  141.9650  152.7470 C   0  0  0  0  0  3  0  0  0  0  0  0
  148.4450  141.3790  153.7670 C   0  0  0  0  0  0  0  0  0  0  0  0
  145.2170  139.7760  154.3280 C   0  0  0  0  0  1  0  0  0  0  0  0
  146.4730  140.3910  154.5990 O   0  0  0  0  0  0  0  0  0  0  0  0
  149.0040  141.1920  155.0040 O   0  0  0  0  0  0  0  0  0  0  0  0
  149.9130  141.3720  155.1390 H   0  0  0  0  0  0  0  0  0  0  0  0
  146.0580  140.7410  149.2270 C   0  0  0  0  0  0  0  0  0  0  0  0
  146.7070  139.7560  148.8740 O   0  0  0  0  0  0  0  0  0  0  0  0
  144.6880  140.7910  149.0870 N   0  0  0  0  0  0  0  0  0  0  0  0
  144.1900  141.6000  149.3490 H   0  0  0  0  0  0  0  0  0  0  0  0
  143.9850  139.6400  148.5510 C   0  0  0  0  0  2  0  0  0  0  0  0
  143.0800  138.9170  149.5630 C   0  0  0  0  0  2  0  0  0  0  0  0
  143.5310  138.9630  150.9720 N   0  0  0  0  0  4  0  0  0  0  0  0
  142.3980  138.9570  151.9040 C   0  0  0  0  0  1  0  0  0  0  0  0
  144.3790  137.7940  151.2450 C   0  0  0  0  0  1  0  0  0  0  0  0
  144.0520  139.8290  151.1080 H   0  0  0  0  0  0  0  0  0  0  0  0
  1  4  1  0  0  0  0
  2  7  1  0  0  0  0
  2  9  1  0  0  0  0
  3  2  2  0  0  0  0
  4  5  2  0  0  0  0
  4  3  1  0  0  0  0
  5  6  1  0  0  0  0
  6  7  2  0  0  0  0
  7 10  1  0  0  0  0
  8  9  1  0  0  0  0
 10 11  1  0  0  0  0
 12  1  1  0  0  0  0
 13 12  2  0  0  0  0
 14 12  1  0  0  0  0
 14 15  1  0  0  0  0
 16 14  1  0  0  0  0
 16 17  1  0  0  0  0
 17 18  1  0  0  0  0
 18 21  1  0  0  0  0
 18 20  1  0  0  0  0
 18 19  1  0  0  0  0
M  END
>  <MODEL>
9

>  <REMARK>
 VINA RESULT:    -5.448      8.449     11.792
 INTER + INTRA:          -7.954
 INTER:                  -7.243
 INTRA:                  -0.711
 UNBOUND:                -0.435
  Name = CHEMBL2314229
  10 active torsions:
  status: ('A' for Active; 'I' for Inactive)
    1  A    between atoms: C_1  and  O_2
    2  A    between atoms: O_2  and  C_3
    3  A    between atoms: C_5  and  C_6
    4  A    between atoms: C_6  and  C_7
    5  A    between atoms: N_9  and  C_10
    6  A    between atoms: C_10  and  C_11
    7  A    between atoms: C_11  and  N_12
    8  A    between atoms: N_12  and  C_13
    9  A    between atoms: N_12  and  C_14
   10  A    between atoms: C_17  and  O_18
                            x       y       z     vdW  Elec       q    Type
                         _______ _______ _______ _____ _____    ______ ____

>  <TORSDO>
F 7

>  <SCORE>
-5.448

>  <RMSD_LB>
8.449

>  <RMSD_UB>
11.792

$$$$
