CHEMBL87352
 OpenBabel10172500453D

 20 20  0  0  0  0  0  0  0  0999 V2000
  146.5550  141.9270  153.9470 C   0  0  0  0  0  2  0  0  0  0  0  0
  146.3830  141.8440  152.4530 C   0  0  0  0  0  0  0  0  0  0  0  0
  147.3910  142.3050  151.5980 C   0  0  0  0  0  3  0  0  0  0  0  0
  147.2490  142.1970  150.2140 C   0  0  0  0  0  3  0  0  0  0  0  0
  146.0950  141.6260  149.6650 C   0  0  0  0  0  0  0  0  0  0  0  0
  145.0640  141.1810  150.4980 C   0  0  0  0  0  0  0  0  0  0  0  0
  145.2180  141.3070  151.8880 C   0  0  0  0  0  3  0  0  0  0  0  0
  146.0140  141.5230  148.3030 O   0  0  0  0  0  0  0  0  0  0  0  0
  145.9440  140.6800  147.9000 H   0  0  0  0  0  0  0  0  0  0  0  0
  143.8710  140.6090  150.1430 O   0  0  0  0  0  0  0  0  0  0  0  0
  143.8210  139.1940  150.0250 C   0  0  0  0  0  1  0  0  0  0  0  0
  147.8450  140.0020  154.7510 C   0  0  0  0  0  0  0  0  0  0  0  0
  148.9130  140.4940  154.4010 O   0  0  0  0  0  0  0  0  0  0  0  0
  146.6280  140.6160  154.5580 N   0  0  0  0  0  0  0  0  0  0  0  0
  145.8010  140.1610  154.8380 H   0  0  0  0  0  0  0  0  0  0  0  0
  147.7460  138.6390  155.4030 C   0  0  0  0  0  2  0  0  0  0  0  0
  148.1750  137.5490  154.4230 C   0  0  0  0  0  2  0  0  0  0  0  0
  147.1450  137.3170  153.3190 C   0  0  0  0  0  2  0  0  0  0  0  0
  144.6280  137.3790  153.4720 C   0  0  0  0  0  1  0  0  0  0  0  0
  145.8920  136.6430  153.8820 C   0  0  0  0  0  2  0  0  0  0  0  0
  1 14  1  0  0  0  0
  2  1  1  0  0  0  0
  3  2  2  0  0  0  0
  4  3  1  0  0  0  0
  5  4  2  0  0  0  0
  5  6  1  0  0  0  0
  6  7  2  0  0  0  0
  7  2  1  0  0  0  0
  8  5  1  0  0  0  0
  9  8  1  0  0  0  0
 10  6  1  0  0  0  0
 11 10  1  0  0  0  0
 12 16  1  0  0  0  0
 13 12  2  0  0  0  0
 14 12  1  0  0  0  0
 14 15  1  0  0  0  0
 17 16  1  0  0  0  0
 18 20  1  0  0  0  0
 18 17  1  0  0  0  0
 19 20  1  0  0  0  0
M  END
>  <MODEL>
1

>  <REMARK>
 VINA RESULT:    -6.267      0.000      0.000
 INTER + INTRA:          -9.442
 INTER:                  -8.607
 INTRA:                  -0.835
 UNBOUND:                -0.426
  Name = CHEMBL87352
  10 active torsions:
  status: ('A' for Active; 'I' for Inactive)
    1  A    between atoms: C_1  and  C_2
    2  A    between atoms: C_2  and  C_3
    3  A    between atoms: C_3  and  C_4
    4  A    between atoms: C_4  and  C_5
    5  A    between atoms: C_5  and  C_6
    6  A    between atoms: N_8  and  C_9
    7  A    between atoms: C_9  and  C_10
    8  A    between atoms: C_13  and  O_14
    9  A    between atoms: C_15  and  O_16
   10  A    between atoms: O_16  and  C_17
                            x       y       z     vdW  Elec       q    Type
                         _______ _______ _______ _____ _____    ______ ____

>  <TORSDO>
F 8

>  <SCORE>
-6.267

>  <RMSD_LB>
0.000

>  <RMSD_UB>
0.000

$$$$
CHEMBL87352
 OpenBabel10172500453D

 20 20  0  0  0  0  0  0  0  0999 V2000
  133.9590  133.9290  151.8260 C   0  0  0  0  0  2  0  0  0  0  0  0
  133.8170  133.7500  150.3370 C   0  0  0  0  0  0  0  0  0  0  0  0
  134.2050  132.5520  149.7270 C   0  0  0  0  0  3  0  0  0  0  0  0
  134.0420  132.3720  148.3530 C   0  0  0  0  0  3  0  0  0  0  0  0
  133.4860  133.3880  147.5690 C   0  0  0  0  0  0  0  0  0  0  0  0
  133.1120  134.6040  148.1520 C   0  0  0  0  0  0  0  0  0  0  0  0
  133.2940  134.7730  149.5330 C   0  0  0  0  0  3  0  0  0  0  0  0
  133.3260  133.1540  146.2310 O   0  0  0  0  0  0  0  0  0  0  0  0
  133.6130  132.3420  145.8600 H   0  0  0  0  0  0  0  0  0  0  0  0
  132.5660  135.7040  147.5470 O   0  0  0  0  0  0  0  0  0  0  0  0
  132.9300  136.9850  148.0420 C   0  0  0  0  0  1  0  0  0  0  0  0
  135.1940  135.8600  152.6970 C   0  0  0  0  0  0  0  0  0  0  0  0
  134.1710  136.5170  152.8620 O   0  0  0  0  0  0  0  0  0  0  0  0
  135.2010  134.5850  152.1780 N   0  0  0  0  0  0  0  0  0  0  0  0
  136.0560  134.1170  152.0450 H   0  0  0  0  0  0  0  0  0  0  0  0
  136.5730  136.4010  153.0130 C   0  0  0  0  0  2  0  0  0  0  0  0
  137.2740  136.8490  151.7330 C   0  0  0  0  0  2  0  0  0  0  0  0
  138.5520  137.6380  152.0110 C   0  0  0  0  0  2  0  0  0  0  0  0
  140.9940  137.3580  151.4470 C   0  0  0  0  0  1  0  0  0  0  0  0
  139.5790  137.4130  150.8990 C   0  0  0  0  0  2  0  0  0  0  0  0
  1 14  1  0  0  0  0
  2  1  1  0  0  0  0
  3  2  1  0  0  0  0
  4  3  2  0  0  0  0
  5  6  2  0  0  0  0
  5  4  1  0  0  0  0
  6  7  1  0  0  0  0
  7  2  2  0  0  0  0
  8  5  1  0  0  0  0
  9  8  1  0  0  0  0
 10 11  1  0  0  0  0
 10  6  1  0  0  0  0
 12 13  2  0  0  0  0
 12 16  1  0  0  0  0
 14 12  1  0  0  0  0
 15 14  1  0  0  0  0
 17 18  1  0  0  0  0
 17 16  1  0  0  0  0
 20 19  1  0  0  0  0
 20 18  1  0  0  0  0
M  END
>  <MODEL>
2

>  <REMARK>
 VINA RESULT:    -6.116     10.524     13.188
 INTER + INTRA:          -9.223
 INTER:                  -8.738
 INTRA:                  -0.485
 UNBOUND:                -0.426
  Name = CHEMBL87352
  10 active torsions:
  status: ('A' for Active; 'I' for Inactive)
    1  A    between atoms: C_1  and  C_2
    2  A    between atoms: C_2  and  C_3
    3  A    between atoms: C_3  and  C_4
    4  A    between atoms: C_4  and  C_5
    5  A    between atoms: C_5  and  C_6
    6  A    between atoms: N_8  and  C_9
    7  A    between atoms: C_9  and  C_10
    8  A    between atoms: C_13  and  O_14
    9  A    between atoms: C_15  and  O_16
   10  A    between atoms: O_16  and  C_17
                            x       y       z     vdW  Elec       q    Type
                         _______ _______ _______ _____ _____    ______ ____

>  <TORSDO>
F 8

>  <SCORE>
-6.116

>  <RMSD_LB>
10.524

>  <RMSD_UB>
13.188

$$$$
CHEMBL87352
 OpenBabel10172500453D

 20 20  0  0  0  0  0  0  0  0999 V2000
  132.6610  134.8780  151.3450 C   0  0  0  0  0  2  0  0  0  0  0  0
  133.1160  134.4000  149.9910 C   0  0  0  0  0  0  0  0  0  0  0  0
  133.5240  133.0740  149.8090 C   0  0  0  0  0  3  0  0  0  0  0  0
  133.9120  132.6200  148.5470 C   0  0  0  0  0  3  0  0  0  0  0  0
  133.8960  133.4870  147.4490 C   0  0  0  0  0  0  0  0  0  0  0  0
  133.5150  134.8230  147.6110 C   0  0  0  0  0  0  0  0  0  0  0  0
  133.1390  135.2670  148.8890 C   0  0  0  0  0  3  0  0  0  0  0  0
  134.2650  132.9870  146.2300 O   0  0  0  0  0  0  0  0  0  0  0  0
  135.0260  132.4460  146.1560 H   0  0  0  0  0  0  0  0  0  0  0  0
  133.4480  135.8080  146.6630 O   0  0  0  0  0  0  0  0  0  0  0  0
  132.4830  136.8370  146.8400 C   0  0  0  0  0  1  0  0  0  0  0  0
  134.1940  135.2560  153.2220 C   0  0  0  0  0  0  0  0  0  0  0  0
  134.1580  136.4750  153.0850 O   0  0  0  0  0  0  0  0  0  0  0  0
  133.5090  134.3820  152.4090 N   0  0  0  0  0  0  0  0  0  0  0  0
  133.5970  133.4120  152.5510 H   0  0  0  0  0  0  0  0  0  0  0  0
  135.0330  134.5760  154.2840 C   0  0  0  0  0  2  0  0  0  0  0  0
  135.4090  135.5680  155.3810 C   0  0  0  0  0  2  0  0  0  0  0  0
  136.9150  135.8100  155.4600 C   0  0  0  0  0  2  0  0  0  0  0  0
  138.1900  137.9820  155.3390 C   0  0  0  0  0  1  0  0  0  0  0  0
  137.3200  136.9950  154.5810 C   0  0  0  0  0  2  0  0  0  0  0  0
  1 14  1  0  0  0  0
  2  1  1  0  0  0  0
  3  2  1  0  0  0  0
  4  3  2  0  0  0  0
  5  6  2  0  0  0  0
  5  4  1  0  0  0  0
  6  7  1  0  0  0  0
  7  2  2  0  0  0  0
  8  5  1  0  0  0  0
  9  8  1  0  0  0  0
 10 11  1  0  0  0  0
 10  6  1  0  0  0  0
 12 16  1  0  0  0  0
 13 12  2  0  0  0  0
 14 15  1  0  0  0  0
 14 12  1  0  0  0  0
 16 17  1  0  0  0  0
 17 18  1  0  0  0  0
 20 19  1  0  0  0  0
 20 18  1  0  0  0  0
M  END
>  <MODEL>
3

>  <REMARK>
 VINA RESULT:    -6.049     11.132     13.698
 INTER + INTRA:          -9.128
 INTER:                  -8.668
 INTRA:                  -0.460
 UNBOUND:                -0.426
  Name = CHEMBL87352
  10 active torsions:
  status: ('A' for Active; 'I' for Inactive)
    1  A    between atoms: C_1  and  C_2
    2  A    between atoms: C_2  and  C_3
    3  A    between atoms: C_3  and  C_4
    4  A    between atoms: C_4  and  C_5
    5  A    between atoms: C_5  and  C_6
    6  A    between atoms: N_8  and  C_9
    7  A    between atoms: C_9  and  C_10
    8  A    between atoms: C_13  and  O_14
    9  A    between atoms: C_15  and  O_16
   10  A    between atoms: O_16  and  C_17
                            x       y       z     vdW  Elec       q    Type
                         _______ _______ _______ _____ _____    ______ ____

>  <TORSDO>
F 8

>  <SCORE>
-6.049

>  <RMSD_LB>
11.132

>  <RMSD_UB>
13.698

$$$$
CHEMBL87352
 OpenBabel10172500453D

 20 20  0  0  0  0  0  0  0  0999 V2000
  144.0180  140.7140  150.5250 C   0  0  0  0  0  2  0  0  0  0  0  0
  144.9540  140.9650  151.6780 C   0  0  0  0  0  0  0  0  0  0  0  0
  145.8030  142.0780  151.6720 C   0  0  0  0  0  3  0  0  0  0  0  0
  146.6460  142.3310  152.7550 C   0  0  0  0  0  3  0  0  0  0  0  0
  146.6510  141.4750  153.8610 C   0  0  0  0  0  0  0  0  0  0  0  0
  145.8290  140.3430  153.8800 C   0  0  0  0  0  0  0  0  0  0  0  0
  144.9960  140.0960  152.7770 C   0  0  0  0  0  3  0  0  0  0  0  0
  147.4790  141.7790  154.9070 O   0  0  0  0  0  0  0  0  0  0  0  0
  147.2850  142.5100  155.4600 H   0  0  0  0  0  0  0  0  0  0  0  0
  145.7090  139.3970  154.8620 O   0  0  0  0  0  0  0  0  0  0  0  0
  146.6410  138.3250  154.8720 C   0  0  0  0  0  1  0  0  0  0  0  0
  141.9850  139.3860  150.1770 C   0  0  0  0  0  0  0  0  0  0  0  0
  141.4230  140.2930  149.5700 O   0  0  0  0  0  0  0  0  0  0  0  0
  143.2530  139.4970  150.7020 N   0  0  0  0  0  0  0  0  0  0  0  0
  143.6420  138.7440  151.2010 H   0  0  0  0  0  0  0  0  0  0  0  0
  141.3240  138.0510  150.4490 C   0  0  0  0  0  2  0  0  0  0  0  0
  141.9570  137.3840  151.6680 C   0  0  0  0  0  2  0  0  0  0  0  0
  141.2610  137.7680  152.9720 C   0  0  0  0  0  2  0  0  0  0  0  0
  142.0000  139.1940  154.9170 C   0  0  0  0  0  1  0  0  0  0  0  0
  142.2830  137.9480  154.0970 C   0  0  0  0  0  2  0  0  0  0  0  0
  1 14  1  0  0  0  0
  1  2  1  0  0  0  0
  2  7  1  0  0  0  0
  3  2  2  0  0  0  0
  3  4  1  0  0  0  0
  4  5  2  0  0  0  0
  5  6  1  0  0  0  0
  5  8  1  0  0  0  0
  6 10  1  0  0  0  0
  7  6  2  0  0  0  0
  8  9  1  0  0  0  0
 10 11  1  0  0  0  0
 12 16  1  0  0  0  0
 12 14  1  0  0  0  0
 13 12  2  0  0  0  0
 14 15  1  0  0  0  0
 16 17  1  0  0  0  0
 17 18  1  0  0  0  0
 18 20  1  0  0  0  0
 20 19  1  0  0  0  0
M  END
>  <MODEL>
4

>  <REMARK>
 VINA RESULT:    -5.971      2.478      5.310
 INTER + INTRA:          -9.016
 INTER:                  -8.119
 INTRA:                  -0.897
 UNBOUND:                -0.426
  Name = CHEMBL87352
  10 active torsions:
  status: ('A' for Active; 'I' for Inactive)
    1  A    between atoms: C_1  and  C_2
    2  A    between atoms: C_2  and  C_3
    3  A    between atoms: C_3  and  C_4
    4  A    between atoms: C_4  and  C_5
    5  A    between atoms: C_5  and  C_6
    6  A    between atoms: N_8  and  C_9
    7  A    between atoms: C_9  and  C_10
    8  A    between atoms: C_13  and  O_14
    9  A    between atoms: C_15  and  O_16
   10  A    between atoms: O_16  and  C_17
                            x       y       z     vdW  Elec       q    Type
                         _______ _______ _______ _____ _____    ______ ____

>  <TORSDO>
F 8

>  <SCORE>
-5.971

>  <RMSD_LB>
2.478

>  <RMSD_UB>
5.310

$$$$
CHEMBL87352
 OpenBabel10172500453D

 20 20  0  0  0  0  0  0  0  0999 V2000
  135.2200  134.7850  155.8330 C   0  0  0  0  0  2  0  0  0  0  0  0
  135.9150  135.8020  156.7020 C   0  0  0  0  0  0  0  0  0  0  0  0
  135.9130  135.6620  158.0940 C   0  0  0  0  0  3  0  0  0  0  0  0
  136.5850  136.5840  158.8990 C   0  0  0  0  0  3  0  0  0  0  0  0
  137.2700  137.6580  158.3210 C   0  0  0  0  0  0  0  0  0  0  0  0
  137.2660  137.8320  156.9330 C   0  0  0  0  0  0  0  0  0  0  0  0
  136.5750  136.9030  156.1390 C   0  0  0  0  0  3  0  0  0  0  0  0
  137.9310  138.5210  159.1510 O   0  0  0  0  0  0  0  0  0  0  0  0
  138.5000  139.1740  158.7920 H   0  0  0  0  0  0  0  0  0  0  0  0
  137.8670  138.8190  156.1980 O   0  0  0  0  0  0  0  0  0  0  0  0
  138.2160  138.5270  154.8520 C   0  0  0  0  0  1  0  0  0  0  0  0
  134.1230  135.2760  153.6960 C   0  0  0  0  0  0  0  0  0  0  0  0
  133.0020  135.0810  154.1560 O   0  0  0  0  0  0  0  0  0  0  0  0
  135.2790  135.1390  154.4310 N   0  0  0  0  0  0  0  0  0  0  0  0
  136.1510  135.2840  153.9990 H   0  0  0  0  0  0  0  0  0  0  0  0
  134.3580  135.6510  152.2480 C   0  0  0  0  0  2  0  0  0  0  0  0
  133.2580  135.0710  151.3620 C   0  0  0  0  0  2  0  0  0  0  0  0
  133.5880  133.6650  150.8650 C   0  0  0  0  0  2  0  0  0  0  0  0
  134.0490  132.4570  148.6990 C   0  0  0  0  0  1  0  0  0  0  0  0
  133.1970  133.5060  149.3940 C   0  0  0  0  0  2  0  0  0  0  0  0
  1  2  1  0  0  0  0
  2  3  1  0  0  0  0
  3  4  2  0  0  0  0
  5  4  1  0  0  0  0
  5  8  1  0  0  0  0
  6  5  2  0  0  0  0
  7  2  2  0  0  0  0
  7  6  1  0  0  0  0
  9  8  1  0  0  0  0
 10  6  1  0  0  0  0
 11 10  1  0  0  0  0
 12 13  2  0  0  0  0
 12 14  1  0  0  0  0
 14  1  1  0  0  0  0
 15 14  1  0  0  0  0
 16 12  1  0  0  0  0
 17 16  1  0  0  0  0
 18 17  1  0  0  0  0
 19 20  1  0  0  0  0
 20 18  1  0  0  0  0
M  END
>  <MODEL>
5

>  <REMARK>
 VINA RESULT:    -5.820     10.387     13.220
 INTER + INTRA:          -8.798
 INTER:                  -8.372
 INTRA:                  -0.426
 UNBOUND:                -0.426
  Name = CHEMBL87352
  10 active torsions:
  status: ('A' for Active; 'I' for Inactive)
    1  A    between atoms: C_1  and  C_2
    2  A    between atoms: C_2  and  C_3
    3  A    between atoms: C_3  and  C_4
    4  A    between atoms: C_4  and  C_5
    5  A    between atoms: C_5  and  C_6
    6  A    between atoms: N_8  and  C_9
    7  A    between atoms: C_9  and  C_10
    8  A    between atoms: C_13  and  O_14
    9  A    between atoms: C_15  and  O_16
   10  A    between atoms: O_16  and  C_17
                            x       y       z     vdW  Elec       q    Type
                         _______ _______ _______ _____ _____    ______ ____

>  <TORSDO>
F 8

>  <SCORE>
-5.820

>  <RMSD_LB>
10.387

>  <RMSD_UB>
13.220

$$$$
CHEMBL87352
 OpenBabel10172500453D

 20 20  0  0  0  0  0  0  0  0999 V2000
  135.7990  135.8300  152.1650 C   0  0  0  0  0  2  0  0  0  0  0  0
  134.8640  135.2580  151.1310 C   0  0  0  0  0  0  0  0  0  0  0  0
  134.7640  133.8740  150.9550 C   0  0  0  0  0  3  0  0  0  0  0  0
  133.8730  133.3410  150.0220 C   0  0  0  0  0  3  0  0  0  0  0  0
  133.0670  134.1870  149.2520 C   0  0  0  0  0  0  0  0  0  0  0  0
  133.1670  135.5750  149.3930 C   0  0  0  0  0  0  0  0  0  0  0  0
  134.0770  136.0950  150.3270 C   0  0  0  0  0  3  0  0  0  0  0  0
  132.1940  133.6150  148.3680 O   0  0  0  0  0  0  0  0  0  0  0  0
  131.8770  132.7460  148.5180 H   0  0  0  0  0  0  0  0  0  0  0  0
  132.4730  136.5490  148.7260 O   0  0  0  0  0  0  0  0  0  0  0  0
  133.0010  137.0150  147.4910 C   0  0  0  0  0  1  0  0  0  0  0  0
  134.7190  135.6560  154.3610 C   0  0  0  0  0  0  0  0  0  0  0  0
  134.0130  136.6390  154.1590 O   0  0  0  0  0  0  0  0  0  0  0  0
  135.6420  135.1870  153.4530 N   0  0  0  0  0  0  0  0  0  0  0  0
  136.1980  134.4080  153.6810 H   0  0  0  0  0  0  0  0  0  0  0  0
  134.6790  134.8710  155.6550 C   0  0  0  0  0  2  0  0  0  0  0  0
  135.6790  135.4460  156.6560 C   0  0  0  0  0  2  0  0  0  0  0  0
  135.3050  135.1310  158.1020 C   0  0  0  0  0  2  0  0  0  0  0  0
  136.1950  134.3790  160.3400 C   0  0  0  0  0  1  0  0  0  0  0  0
  136.5520  134.7930  158.9220 C   0  0  0  0  0  2  0  0  0  0  0  0
  1 14  1  0  0  0  0
  2  1  1  0  0  0  0
  3  2  1  0  0  0  0
  4  3  2  0  0  0  0
  5  6  2  0  0  0  0
  5  4  1  0  0  0  0
  6  7  1  0  0  0  0
  7  2  2  0  0  0  0
  8  9  1  0  0  0  0
  8  5  1  0  0  0  0
 10  6  1  0  0  0  0
 11 10  1  0  0  0  0
 12 16  1  0  0  0  0
 13 12  2  0  0  0  0
 14 15  1  0  0  0  0
 14 12  1  0  0  0  0
 16 17  1  0  0  0  0
 17 18  1  0  0  0  0
 18 20  1  0  0  0  0
 20 19  1  0  0  0  0
M  END
>  <MODEL>
6

>  <REMARK>
 VINA RESULT:    -5.806     12.113     13.431
 INTER + INTRA:          -8.777
 INTER:                  -8.356
 INTRA:                  -0.421
 UNBOUND:                -0.426
  Name = CHEMBL87352
  10 active torsions:
  status: ('A' for Active; 'I' for Inactive)
    1  A    between atoms: C_1  and  C_2
    2  A    between atoms: C_2  and  C_3
    3  A    between atoms: C_3  and  C_4
    4  A    between atoms: C_4  and  C_5
    5  A    between atoms: C_5  and  C_6
    6  A    between atoms: N_8  and  C_9
    7  A    between atoms: C_9  and  C_10
    8  A    between atoms: C_13  and  O_14
    9  A    between atoms: C_15  and  O_16
   10  A    between atoms: O_16  and  C_17
                            x       y       z     vdW  Elec       q    Type
                         _______ _______ _______ _____ _____    ______ ____

>  <TORSDO>
F 8

>  <SCORE>
-5.806

>  <RMSD_LB>
12.113

>  <RMSD_UB>
13.431

$$$$
CHEMBL87352
 OpenBabel10172500453D

 20 20  0  0  0  0  0  0  0  0999 V2000
  144.3540  137.4390  152.6450 C   0  0  0  0  0  2  0  0  0  0  0  0
  142.8730  137.7020  152.7360 C   0  0  0  0  0  0  0  0  0  0  0  0
  142.0480  137.4980  151.6240 C   0  0  0  0  0  3  0  0  0  0  0  0
  140.6710  137.7070  151.7170 C   0  0  0  0  0  3  0  0  0  0  0  0
  140.1000  138.1230  152.9240 C   0  0  0  0  0  0  0  0  0  0  0  0
  140.9070  138.3570  154.0420 C   0  0  0  0  0  0  0  0  0  0  0  0
  142.2920  138.1530  153.9290 C   0  0  0  0  0  3  0  0  0  0  0  0
  138.7430  138.2920  152.9690 O   0  0  0  0  0  0  0  0  0  0  0  0
  138.1880  137.5700  153.1880 H   0  0  0  0  0  0  0  0  0  0  0  0
  140.5290  138.7710  155.2910 O   0  0  0  0  0  0  0  0  0  0  0  0
  140.2350  137.7760  156.2620 C   0  0  0  0  0  1  0  0  0  0  0  0
  146.2950  138.5970  153.5970 C   0  0  0  0  0  0  0  0  0  0  0  0
  146.7200  137.5760  154.1300 O   0  0  0  0  0  0  0  0  0  0  0  0
  145.1330  138.6410  152.8610 N   0  0  0  0  0  0  0  0  0  0  0  0
  144.8290  139.4950  152.4790 H   0  0  0  0  0  0  0  0  0  0  0  0
  146.9890  139.9370  153.7260 C   0  0  0  0  0  2  0  0  0  0  0  0
  145.9620  141.0660  153.7690 C   0  0  0  0  0  2  0  0  0  0  0  0
  146.3680  142.2590  152.9070 C   0  0  0  0  0  2  0  0  0  0  0  0
  146.4410  142.6420  150.4150 C   0  0  0  0  0  1  0  0  0  0  0  0
  145.5660  142.2840  151.6040 C   0  0  0  0  0  2  0  0  0  0  0  0
  1  2  1  0  0  0  0
  1 14  1  0  0  0  0
  2  7  1  0  0  0  0
  3  4  1  0  0  0  0
  3  2  2  0  0  0  0
  4  5  2  0  0  0  0
  5  8  1  0  0  0  0
  5  6  1  0  0  0  0
  6 10  1  0  0  0  0
  7  6  2  0  0  0  0
  8  9  1  0  0  0  0
 10 11  1  0  0  0  0
 12 16  1  0  0  0  0
 12 13  2  0  0  0  0
 14 12  1  0  0  0  0
 15 14  1  0  0  0  0
 16 17  1  0  0  0  0
 18 17  1  0  0  0  0
 19 20  1  0  0  0  0
 20 18  1  0  0  0  0
M  END
>  <MODEL>
7

>  <REMARK>
 VINA RESULT:    -5.761      3.407      5.899
 INTER + INTRA:          -8.713
 INTER:                  -8.117
 INTRA:                  -0.596
 UNBOUND:                -0.426
  Name = CHEMBL87352
  10 active torsions:
  status: ('A' for Active; 'I' for Inactive)
    1  A    between atoms: C_1  and  C_2
    2  A    between atoms: C_2  and  C_3
    3  A    between atoms: C_3  and  C_4
    4  A    between atoms: C_4  and  C_5
    5  A    between atoms: C_5  and  C_6
    6  A    between atoms: N_8  and  C_9
    7  A    between atoms: C_9  and  C_10
    8  A    between atoms: C_13  and  O_14
    9  A    between atoms: C_15  and  O_16
   10  A    between atoms: O_16  and  C_17
                            x       y       z     vdW  Elec       q    Type
                         _______ _______ _______ _____ _____    ______ ____

>  <TORSDO>
F 8

>  <SCORE>
-5.761

>  <RMSD_LB>
3.407

>  <RMSD_UB>
5.899

$$$$
CHEMBL87352
 OpenBabel10172500453D

 20 20  0  0  0  0  0  0  0  0999 V2000
  134.3580  135.8740  154.3540 C   0  0  0  0  0  2  0  0  0  0  0  0
  134.5930  135.4560  152.9260 C   0  0  0  0  0  0  0  0  0  0  0  0
  135.7520  134.7530  152.5760 C   0  0  0  0  0  3  0  0  0  0  0  0
  135.9550  134.3340  151.2600 C   0  0  0  0  0  3  0  0  0  0  0  0
  135.0010  134.6130  150.2750 C   0  0  0  0  0  0  0  0  0  0  0  0
  133.8470  135.3350  150.5960 C   0  0  0  0  0  0  0  0  0  0  0  0
  133.6630  135.7590  151.9220 C   0  0  0  0  0  3  0  0  0  0  0  0
  135.2360  134.1620  149.0050 O   0  0  0  0  0  0  0  0  0  0  0  0
  136.0380  133.7180  148.8070 H   0  0  0  0  0  0  0  0  0  0  0  0
  132.8190  135.7050  149.7700 O   0  0  0  0  0  0  0  0  0  0  0  0
  132.9490  136.9230  149.0500 C   0  0  0  0  0  1  0  0  0  0  0  0
  136.3170  136.5500  155.6660 C   0  0  0  0  0  0  0  0  0  0  0  0
  136.1830  137.7330  155.3710 O   0  0  0  0  0  0  0  0  0  0  0  0
  135.4850  135.5540  155.2050 N   0  0  0  0  0  0  0  0  0  0  0  0
  135.6580  134.6190  155.4560 H   0  0  0  0  0  0  0  0  0  0  0  0
  137.4440  136.0480  156.5450 C   0  0  0  0  0  2  0  0  0  0  0  0
  136.8870  135.4500  157.8340 C   0  0  0  0  0  2  0  0  0  0  0  0
  136.2730  136.5050  158.7510 C   0  0  0  0  0  2  0  0  0  0  0  0
  136.4670  134.5890  160.3810 C   0  0  0  0  0  1  0  0  0  0  0  0
  136.4230  136.0990  160.2190 C   0  0  0  0  0  2  0  0  0  0  0  0
  1 14  1  0  0  0  0
  2  1  1  0  0  0  0
  3  2  1  0  0  0  0
  4  3  2  0  0  0  0
  5  6  2  0  0  0  0
  5  4  1  0  0  0  0
  6  7  1  0  0  0  0
  7  2  2  0  0  0  0
  8  5  1  0  0  0  0
  9  8  1  0  0  0  0
 10  6  1  0  0  0  0
 11 10  1  0  0  0  0
 12 16  1  0  0  0  0
 13 12  2  0  0  0  0
 14 15  1  0  0  0  0
 14 12  1  0  0  0  0
 16 17  1  0  0  0  0
 17 18  1  0  0  0  0
 18 20  1  0  0  0  0
 20 19  1  0  0  0  0
M  END
>  <MODEL>
8

>  <REMARK>
 VINA RESULT:    -5.749     11.179     12.500
 INTER + INTRA:          -8.696
 INTER:                  -8.184
 INTRA:                  -0.513
 UNBOUND:                -0.426
  Name = CHEMBL87352
  10 active torsions:
  status: ('A' for Active; 'I' for Inactive)
    1  A    between atoms: C_1  and  C_2
    2  A    between atoms: C_2  and  C_3
    3  A    between atoms: C_3  and  C_4
    4  A    between atoms: C_4  and  C_5
    5  A    between atoms: C_5  and  C_6
    6  A    between atoms: N_8  and  C_9
    7  A    between atoms: C_9  and  C_10
    8  A    between atoms: C_13  and  O_14
    9  A    between atoms: C_15  and  O_16
   10  A    between atoms: O_16  and  C_17
                            x       y       z     vdW  Elec       q    Type
                         _______ _______ _______ _____ _____    ______ ____

>  <TORSDO>
F 8

>  <SCORE>
-5.749

>  <RMSD_LB>
11.179

>  <RMSD_UB>
12.500

$$$$
CHEMBL87352
 OpenBabel10172500453D

 20 20  0  0  0  0  0  0  0  0999 V2000
  134.6880  134.5740  154.8460 C   0  0  0  0  0  2  0  0  0  0  0  0
  135.6930  135.5020  155.4780 C   0  0  0  0  0  0  0  0  0  0  0  0
  136.5000  136.3210  154.6800 C   0  0  0  0  0  3  0  0  0  0  0  0
  137.4070  137.2060  155.2650 C   0  0  0  0  0  3  0  0  0  0  0  0
  137.5190  137.2860  156.6570 C   0  0  0  0  0  0  0  0  0  0  0  0
  136.7410  136.4600  157.4750 C   0  0  0  0  0  0  0  0  0  0  0  0
  135.8420  135.5660  156.8710 C   0  0  0  0  0  3  0  0  0  0  0  0
  138.4070  138.1850  157.1810 O   0  0  0  0  0  0  0  0  0  0  0  0
  139.1340  138.4780  156.6680 H   0  0  0  0  0  0  0  0  0  0  0  0
  136.7220  136.3920  158.8420 O   0  0  0  0  0  0  0  0  0  0  0  0
  136.2730  135.1850  159.4430 C   0  0  0  0  0  1  0  0  0  0  0  0
  134.2750  134.4830  152.4300 C   0  0  0  0  0  0  0  0  0  0  0  0
  133.1940  135.0560  152.5320 O   0  0  0  0  0  0  0  0  0  0  0  0
  135.0780  134.1830  153.5080 N   0  0  0  0  0  0  0  0  0  0  0  0
  135.9230  133.6990  153.3670 H   0  0  0  0  0  0  0  0  0  0  0  0
  134.8270  134.0070  151.1030 C   0  0  0  0  0  2  0  0  0  0  0  0
  133.9340  132.9160  150.5160 C   0  0  0  0  0  2  0  0  0  0  0  0
  133.9810  132.8810  148.9910 C   0  0  0  0  0  2  0  0  0  0  0  0
  133.1570  134.9300  147.7720 C   0  0  0  0  0  1  0  0  0  0  0  0
  132.7680  133.6010  148.3960 C   0  0  0  0  0  2  0  0  0  0  0  0
  1  2  1  0  0  0  0
  2  7  1  0  0  0  0
  3  4  1  0  0  0  0
  3  2  2  0  0  0  0
  4  5  2  0  0  0  0
  5  8  1  0  0  0  0
  5  6  1  0  0  0  0
  6 10  1  0  0  0  0
  7  6  2  0  0  0  0
  9  8  1  0  0  0  0
 10 11  1  0  0  0  0
 12 13  2  0  0  0  0
 12 14  1  0  0  0  0
 14  1  1  0  0  0  0
 15 14  1  0  0  0  0
 16 12  1  0  0  0  0
 17 16  1  0  0  0  0
 18 17  1  0  0  0  0
 19 20  1  0  0  0  0
 20 18  1  0  0  0  0
M  END
>  <MODEL>
9

>  <REMARK>
 VINA RESULT:    -5.747     10.573     13.473
 INTER + INTRA:          -8.693
 INTER:                  -8.265
 INTRA:                  -0.429
 UNBOUND:                -0.426
  Name = CHEMBL87352
  10 active torsions:
  status: ('A' for Active; 'I' for Inactive)
    1  A    between atoms: C_1  and  C_2
    2  A    between atoms: C_2  and  C_3
    3  A    between atoms: C_3  and  C_4
    4  A    between atoms: C_4  and  C_5
    5  A    between atoms: C_5  and  C_6
    6  A    between atoms: N_8  and  C_9
    7  A    between atoms: C_9  and  C_10
    8  A    between atoms: C_13  and  O_14
    9  A    between atoms: C_15  and  O_16
   10  A    between atoms: O_16  and  C_17
                            x       y       z     vdW  Elec       q    Type
                         _______ _______ _______ _____ _____    ______ ____

>  <TORSDO>
F 8

>  <SCORE>
-5.747

>  <RMSD_LB>
10.573

>  <RMSD_UB>
13.473

$$$$
