CHEMBL4453616
 OpenBabel10172500223D

 17 17  0  0  0  0  0  0  0  0999 V2000
  133.3850  134.7540  150.1990 C   0  0  0  0  0  0  0  0  0  0  0  0
  133.0160  135.4080  149.0150 C   0  0  0  0  0  3  0  0  0  0  0  0
  133.0980  134.7450  147.7840 C   0  0  0  0  0  3  0  0  0  0  0  0
  133.5550  133.4260  147.7070 C   0  0  0  0  0  0  0  0  0  0  0  0
  133.9380  132.7870  148.8890 C   0  0  0  0  0  0  0  0  0  0  0  0
  134.3840  131.5220  148.8920 F   0  0  0  0  0  0  0  0  0  0  0  0
  133.8610  133.4410  150.1190 C   0  0  0  0  0  3  0  0  0  0  0  0
  133.5720  132.9050  146.4430 O   0  0  0  0  0  0  0  0  0  0  0  0
  134.5560  133.4130  145.5500 C   0  0  0  0  0  1  0  0  0  0  0  0
  133.2770  135.4400  151.5320 C   0  0  0  0  0  2  0  0  0  0  0  0
  134.5470  135.0810  153.5840 C   0  0  0  0  0  0  0  0  0  0  0  0
  133.5460  134.7290  154.2000 O   0  0  0  0  0  0  0  0  0  0  0  0
  134.5260  135.4240  152.2510 N   0  0  0  0  0  0  0  0  0  0  0  0
  135.3630  135.6580  151.7880 H   0  0  0  0  0  0  0  0  0  0  0  0
  135.9070  135.1720  154.2430 C   0  0  0  0  0  2  0  0  0  0  0  0
  137.2000  135.9520  156.2830 C   0  0  0  0  0  1  0  0  0  0  0  0
  135.8350  135.6020  155.7060 C   0  0  0  0  0  2  0  0  0  0  0  0
  1 10  1  0  0  0  0
  2  1  2  0  0  0  0
  3  2  1  0  0  0  0
  4  3  2  0  0  0  0
  4  5  1  0  0  0  0
  5  6  1  0  0  0  0
  5  7  2  0  0  0  0
  7  1  1  0  0  0  0
  8  4  1  0  0  0  0
  9  8  1  0  0  0  0
 10 13  1  0  0  0  0
 11 12  2  0  0  0  0
 11 15  1  0  0  0  0
 13 11  1  0  0  0  0
 14 13  1  0  0  0  0
 15 17  1  0  0  0  0
 17 16  1  0  0  0  0
M  END
>  <MODEL>
1

>  <REMARK>
 VINA RESULT:    -5.942      0.000      0.000
 INTER + INTRA:          -7.989
 INTER:                  -7.705
 INTRA:                  -0.284
 UNBOUND:                -0.310
  Name = CHEMBL4453616
  7 active torsions:
  status: ('A' for Active; 'I' for Inactive)
    1  A    between atoms: C_1  and  C_2
    2  A    between atoms: C_2  and  C_3
    3  A    between atoms: C_3  and  C_4
    4  A    between atoms: N_6  and  C_7
    5  A    between atoms: C_7  and  C_8
    6  A    between atoms: C_11  and  O_12
    7  A    between atoms: O_12  and  C_13
                            x       y       z     vdW  Elec       q    Type
                         _______ _______ _______ _____ _____    ______ ____

>  <TORSDO>
F 5

>  <SCORE>
-5.942

>  <RMSD_LB>
0.000

>  <RMSD_UB>
0.000

$$$$
CHEMBL4453616
 OpenBabel10172500223D

 17 17  0  0  0  0  0  0  0  0999 V2000
  133.2370  134.4400  149.6960 C   0  0  0  0  0  0  0  0  0  0  0  0
  133.7980  133.1590  149.5980 C   0  0  0  0  0  3  0  0  0  0  0  0
  134.4300  132.7500  148.4170 C   0  0  0  0  0  3  0  0  0  0  0  0
  134.5080  133.6030  147.3110 C   0  0  0  0  0  0  0  0  0  0  0  0
  133.9300  134.8710  147.4100 C   0  0  0  0  0  0  0  0  0  0  0  0
  133.9680  135.7420  146.3900 F   0  0  0  0  0  0  0  0  0  0  0  0
  133.2970  135.2850  148.5820 C   0  0  0  0  0  3  0  0  0  0  0  0
  135.1610  133.0730  146.2330 O   0  0  0  0  0  0  0  0  0  0  0  0
  136.1160  132.0520  146.4960 C   0  0  0  0  0  1  0  0  0  0  0  0
  132.5800  134.9070  150.9650 C   0  0  0  0  0  2  0  0  0  0  0  0
  133.8770  135.0140  153.0280 C   0  0  0  0  0  0  0  0  0  0  0  0
  134.0410  136.2250  152.9190 O   0  0  0  0  0  0  0  0  0  0  0  0
  133.1430  134.2720  152.1300 N   0  0  0  0  0  0  0  0  0  0  0  0
  133.0030  133.3100  152.2830 H   0  0  0  0  0  0  0  0  0  0  0  0
  134.4750  134.2200  154.1710 C   0  0  0  0  0  2  0  0  0  0  0  0
  134.5420  134.6740  156.6670 C   0  0  0  0  0  1  0  0  0  0  0  0
  135.0250  135.1030  155.2880 C   0  0  0  0  0  2  0  0  0  0  0  0
  1 10  1  0  0  0  0
  2  1  1  0  0  0  0
  3  2  2  0  0  0  0
  4  5  2  0  0  0  0
  4  3  1  0  0  0  0
  5  7  1  0  0  0  0
  6  5  1  0  0  0  0
  7  1  2  0  0  0  0
  8  9  1  0  0  0  0
  8  4  1  0  0  0  0
 10 13  1  0  0  0  0
 11 15  1  0  0  0  0
 12 11  2  0  0  0  0
 13 14  1  0  0  0  0
 13 11  1  0  0  0  0
 15 17  1  0  0  0  0
 17 16  1  0  0  0  0
M  END
>  <MODEL>
2

>  <REMARK>
 VINA RESULT:    -5.791      1.803      2.241
 INTER + INTRA:          -7.794
 INTER:                  -7.461
 INTRA:                  -0.334
 UNBOUND:                -0.310
  Name = CHEMBL4453616
  7 active torsions:
  status: ('A' for Active; 'I' for Inactive)
    1  A    between atoms: C_1  and  C_2
    2  A    between atoms: C_2  and  C_3
    3  A    between atoms: C_3  and  C_4
    4  A    between atoms: N_6  and  C_7
    5  A    between atoms: C_7  and  C_8
    6  A    between atoms: C_11  and  O_12
    7  A    between atoms: O_12  and  C_13
                            x       y       z     vdW  Elec       q    Type
                         _______ _______ _______ _____ _____    ______ ____

>  <TORSDO>
F 5

>  <SCORE>
-5.791

>  <RMSD_LB>
1.803

>  <RMSD_UB>
2.241

$$$$
CHEMBL4453616
 OpenBabel10172500223D

 17 17  0  0  0  0  0  0  0  0999 V2000
  144.5800  140.8070  151.3250 C   0  0  0  0  0  0  0  0  0  0  0  0
  145.3350  141.9830  151.2100 C   0  0  0  0  0  3  0  0  0  0  0  0
  146.1980  142.3740  152.2400 C   0  0  0  0  0  3  0  0  0  0  0  0
  146.3210  141.6100  153.4050 C   0  0  0  0  0  0  0  0  0  0  0  0
  145.5520  140.4500  153.5210 C   0  0  0  0  0  0  0  0  0  0  0  0
  145.6190  139.6670  154.6080 F   0  0  0  0  0  0  0  0  0  0  0  0
  144.6880  140.0540  152.5000 C   0  0  0  0  0  3  0  0  0  0  0  0
  147.2080  142.1090  154.3190 O   0  0  0  0  0  0  0  0  0  0  0  0
  148.5440  141.6260  154.2510 C   0  0  0  0  0  1  0  0  0  0  0  0
  143.6690  140.3550  150.2180 C   0  0  0  0  0  2  0  0  0  0  0  0
  141.4000  139.4680  150.3510 C   0  0  0  0  0  0  0  0  0  0  0  0
  140.9520  140.3750  149.6580 O   0  0  0  0  0  0  0  0  0  0  0  0
  142.7360  139.3500  150.6620 N   0  0  0  0  0  0  0  0  0  0  0  0
  143.0550  138.5800  151.1860 H   0  0  0  0  0  0  0  0  0  0  0  0
  140.5140  138.3880  150.9350 C   0  0  0  0  0  2  0  0  0  0  0  0
  140.8100  138.0540  153.4340 C   0  0  0  0  0  1  0  0  0  0  0  0
  141.1980  137.5840  152.0390 C   0  0  0  0  0  2  0  0  0  0  0  0
  1  7  1  0  0  0  0
  2  1  2  0  0  0  0
  2  3  1  0  0  0  0
  3  4  2  0  0  0  0
  4  5  1  0  0  0  0
  4  8  1  0  0  0  0
  5  6  1  0  0  0  0
  7  5  2  0  0  0  0
  9  8  1  0  0  0  0
 10 13  1  0  0  0  0
 10  1  1  0  0  0  0
 11 13  1  0  0  0  0
 11 15  1  0  0  0  0
 12 11  2  0  0  0  0
 13 14  1  0  0  0  0
 15 17  1  0  0  0  0
 17 16  1  0  0  0  0
M  END
>  <MODEL>
3

>  <REMARK>
 VINA RESULT:    -5.697     10.513     12.921
 INTER + INTRA:          -7.673
 INTER:                  -7.185
 INTRA:                  -0.488
 UNBOUND:                -0.310
  Name = CHEMBL4453616
  7 active torsions:
  status: ('A' for Active; 'I' for Inactive)
    1  A    between atoms: C_1  and  C_2
    2  A    between atoms: C_2  and  C_3
    3  A    between atoms: C_3  and  C_4
    4  A    between atoms: N_6  and  C_7
    5  A    between atoms: C_7  and  C_8
    6  A    between atoms: C_11  and  O_12
    7  A    between atoms: O_12  and  C_13
                            x       y       z     vdW  Elec       q    Type
                         _______ _______ _______ _____ _____    ______ ____

>  <TORSDO>
F 5

>  <SCORE>
-5.697

>  <RMSD_LB>
10.513

>  <RMSD_UB>
12.921

$$$$
CHEMBL4453616
 OpenBabel10172500223D

 17 17  0  0  0  0  0  0  0  0999 V2000
  135.3310  135.0620  154.5060 C   0  0  0  0  0  0  0  0  0  0  0  0
  136.1750  135.8800  153.7420 C   0  0  0  0  0  3  0  0  0  0  0  0
  137.0100  136.8150  154.3650 C   0  0  0  0  0  3  0  0  0  0  0  0
  137.0160  136.9600  155.7560 C   0  0  0  0  0  0  0  0  0  0  0  0
  136.1600  136.1540  156.5100 C   0  0  0  0  0  0  0  0  0  0  0  0
  136.1140  136.2370  157.8480 F   0  0  0  0  0  0  0  0  0  0  0  0
  135.3230  135.2210  155.8970 C   0  0  0  0  0  3  0  0  0  0  0  0
  137.8880  137.9040  156.2230 O   0  0  0  0  0  0  0  0  0  0  0  0
  139.1240  138.0380  155.5320 C   0  0  0  0  0  1  0  0  0  0  0  0
  134.4480  134.0330  153.8580 C   0  0  0  0  0  2  0  0  0  0  0  0
  133.6410  134.3850  151.5830 C   0  0  0  0  0  0  0  0  0  0  0  0
  134.4900  133.6350  151.1140 O   0  0  0  0  0  0  0  0  0  0  0  0
  133.5160  134.6260  152.9330 N   0  0  0  0  0  0  0  0  0  0  0  0
  132.7910  135.2030  153.2660 H   0  0  0  0  0  0  0  0  0  0  0  0
  132.6470  135.1220  150.7100 C   0  0  0  0  0  2  0  0  0  0  0  0
  132.5260  137.0030  149.0110 C   0  0  0  0  0  1  0  0  0  0  0  0
  133.1090  136.5280  150.3350 C   0  0  0  0  0  2  0  0  0  0  0  0
  1  7  1  0  0  0  0
  2  3  1  0  0  0  0
  2  1  2  0  0  0  0
  3  4  2  0  0  0  0
  4  8  1  0  0  0  0
  4  5  1  0  0  0  0
  5  6  1  0  0  0  0
  7  5  2  0  0  0  0
  9  8  1  0  0  0  0
 10  1  1  0  0  0  0
 11 13  1  0  0  0  0
 12 11  2  0  0  0  0
 13 14  1  0  0  0  0
 13 10  1  0  0  0  0
 15 11  1  0  0  0  0
 16 17  1  0  0  0  0
 17 15  1  0  0  0  0
M  END
>  <MODEL>
4

>  <REMARK>
 VINA RESULT:    -5.640      3.641      7.377
 INTER + INTRA:          -7.599
 INTER:                  -7.231
 INTRA:                  -0.368
 UNBOUND:                -0.310
  Name = CHEMBL4453616
  7 active torsions:
  status: ('A' for Active; 'I' for Inactive)
    1  A    between atoms: C_1  and  C_2
    2  A    between atoms: C_2  and  C_3
    3  A    between atoms: C_3  and  C_4
    4  A    between atoms: N_6  and  C_7
    5  A    between atoms: C_7  and  C_8
    6  A    between atoms: C_11  and  O_12
    7  A    between atoms: O_12  and  C_13
                            x       y       z     vdW  Elec       q    Type
                         _______ _______ _______ _____ _____    ______ ____

>  <TORSDO>
F 5

>  <SCORE>
-5.640

>  <RMSD_LB>
3.641

>  <RMSD_UB>
7.377

$$$$
CHEMBL4453616
 OpenBabel10172500223D

 17 17  0  0  0  0  0  0  0  0999 V2000
  146.2180  141.5030  152.5900 C   0  0  0  0  0  0  0  0  0  0  0  0
  145.3110  140.4870  152.2580 C   0  0  0  0  0  3  0  0  0  0  0  0
  144.9690  140.2510  150.9210 C   0  0  0  0  0  3  0  0  0  0  0  0
  145.5150  141.0230  149.8920 C   0  0  0  0  0  0  0  0  0  0  0  0
  146.4040  142.0460  150.2310 C   0  0  0  0  0  0  0  0  0  0  0  0
  146.9680  142.8260  149.2970 F   0  0  0  0  0  0  0  0  0  0  0  0
  146.7490  142.2890  151.5610 C   0  0  0  0  0  3  0  0  0  0  0  0
  145.0980  140.6730  148.6380 O   0  0  0  0  0  0  0  0  0  0  0  0
  145.8480  139.6690  147.9660 C   0  0  0  0  0  1  0  0  0  0  0  0
  146.6190  141.7530  154.0170 C   0  0  0  0  0  2  0  0  0  0  0  0
  148.0060  139.8880  154.7560 C   0  0  0  0  0  0  0  0  0  0  0  0
  148.9990  140.3390  154.1940 O   0  0  0  0  0  0  0  0  0  0  0  0
  146.7870  140.5260  154.7540 N   0  0  0  0  0  0  0  0  0  0  0  0
  146.0300  140.1460  155.2560 H   0  0  0  0  0  0  0  0  0  0  0  0
  148.0350  138.5720  155.5060 C   0  0  0  0  0  2  0  0  0  0  0  0
  147.4690  137.3470  153.3570 C   0  0  0  0  0  1  0  0  0  0  0  0
  147.1850  137.4890  154.8460 C   0  0  0  0  0  2  0  0  0  0  0  0
  1 10  1  0  0  0  0
  2  1  1  0  0  0  0
  3  2  2  0  0  0  0
  4  5  2  0  0  0  0
  4  3  1  0  0  0  0
  5  7  1  0  0  0  0
  6  5  1  0  0  0  0
  7  1  2  0  0  0  0
  8  4  1  0  0  0  0
  9  8  1  0  0  0  0
 10 13  1  0  0  0  0
 11 15  1  0  0  0  0
 12 11  2  0  0  0  0
 13 11  1  0  0  0  0
 13 14  1  0  0  0  0
 16 17  1  0  0  0  0
 17 15  1  0  0  0  0
M  END
>  <MODEL>
5

>  <REMARK>
 VINA RESULT:    -5.625     13.095     14.204
 INTER + INTRA:          -7.580
 INTER:                  -6.966
 INTRA:                  -0.614
 UNBOUND:                -0.310
  Name = CHEMBL4453616
  7 active torsions:
  status: ('A' for Active; 'I' for Inactive)
    1  A    between atoms: C_1  and  C_2
    2  A    between atoms: C_2  and  C_3
    3  A    between atoms: C_3  and  C_4
    4  A    between atoms: N_6  and  C_7
    5  A    between atoms: C_7  and  C_8
    6  A    between atoms: C_11  and  O_12
    7  A    between atoms: O_12  and  C_13
                            x       y       z     vdW  Elec       q    Type
                         _______ _______ _______ _____ _____    ______ ____

>  <TORSDO>
F 5

>  <SCORE>
-5.625

>  <RMSD_LB>
13.095

>  <RMSD_UB>
14.204

$$$$
CHEMBL4453616
 OpenBabel10172500223D

 17 17  0  0  0  0  0  0  0  0999 V2000
  135.6760  135.4870  154.6190 C   0  0  0  0  0  0  0  0  0  0  0  0
  134.6270  134.8440  155.2910 C   0  0  0  0  0  3  0  0  0  0  0  0
  134.6400  134.7350  156.6870 C   0  0  0  0  0  3  0  0  0  0  0  0
  135.6990  135.2550  157.4390 C   0  0  0  0  0  0  0  0  0  0  0  0
  136.7500  135.8780  156.7620 C   0  0  0  0  0  0  0  0  0  0  0  0
  137.7970  136.4000  157.4170 F   0  0  0  0  0  0  0  0  0  0  0  0
  136.7450  135.9880  155.3710 C   0  0  0  0  0  3  0  0  0  0  0  0
  135.5720  135.0840  158.7890 O   0  0  0  0  0  0  0  0  0  0  0  0
  134.2620  135.1930  159.3330 C   0  0  0  0  0  1  0  0  0  0  0  0
  135.6660  135.6380  153.1240 C   0  0  0  0  0  2  0  0  0  0  0  0
  134.1730  134.5960  151.5000 C   0  0  0  0  0  0  0  0  0  0  0  0
  133.7490  135.6830  151.1200 O   0  0  0  0  0  0  0  0  0  0  0  0
  135.1450  134.4660  152.4660 N   0  0  0  0  0  0  0  0  0  0  0  0
  135.4850  133.5740  152.7070 H   0  0  0  0  0  0  0  0  0  0  0  0
  133.6580  133.2890  150.9350 C   0  0  0  0  0  2  0  0  0  0  0  0
  134.1140  132.4130  148.5980 C   0  0  0  0  0  1  0  0  0  0  0  0
  133.3030  133.3760  149.4530 C   0  0  0  0  0  2  0  0  0  0  0  0
  1  2  2  0  0  0  0
  1  7  1  0  0  0  0
  2  3  1  0  0  0  0
  3  4  2  0  0  0  0
  4  8  1  0  0  0  0
  5  6  1  0  0  0  0
  5  4  1  0  0  0  0
  7  5  2  0  0  0  0
  8  9  1  0  0  0  0
 10  1  1  0  0  0  0
 11 13  1  0  0  0  0
 12 11  2  0  0  0  0
 13 14  1  0  0  0  0
 13 10  1  0  0  0  0
 15 11  1  0  0  0  0
 16 17  1  0  0  0  0
 17 15  1  0  0  0  0
M  END
>  <MODEL>
6

>  <REMARK>
 VINA RESULT:    -5.618      3.351      7.954
 INTER + INTRA:          -7.570
 INTER:                  -7.269
 INTRA:                  -0.301
 UNBOUND:                -0.310
  Name = CHEMBL4453616
  7 active torsions:
  status: ('A' for Active; 'I' for Inactive)
    1  A    between atoms: C_1  and  C_2
    2  A    between atoms: C_2  and  C_3
    3  A    between atoms: C_3  and  C_4
    4  A    between atoms: N_6  and  C_7
    5  A    between atoms: C_7  and  C_8
    6  A    between atoms: C_11  and  O_12
    7  A    between atoms: O_12  and  C_13
                            x       y       z     vdW  Elec       q    Type
                         _______ _______ _______ _____ _____    ______ ____

>  <TORSDO>
F 5

>  <SCORE>
-5.618

>  <RMSD_LB>
3.351

>  <RMSD_UB>
7.954

$$$$
CHEMBL4453616
 OpenBabel10172500223D

 17 17  0  0  0  0  0  0  0  0999 V2000
  133.4070  135.0780  148.5690 C   0  0  0  0  0  0  0  0  0  0  0  0
  133.2220  136.2360  149.3370 C   0  0  0  0  0  3  0  0  0  0  0  0
  133.1750  136.1600  150.7340 C   0  0  0  0  0  3  0  0  0  0  0  0
  133.3040  134.9330  151.3930 C   0  0  0  0  0  0  0  0  0  0  0  0
  133.4700  133.7810  150.6200 C   0  0  0  0  0  0  0  0  0  0  0  0
  133.6020  132.5700  151.1820 F   0  0  0  0  0  0  0  0  0  0  0  0
  133.5150  133.8480  149.2270 C   0  0  0  0  0  3  0  0  0  0  0  0
  133.2500  135.0130  152.7560 O   0  0  0  0  0  0  0  0  0  0  0  0
  134.2020  135.8570  153.3910 C   0  0  0  0  0  1  0  0  0  0  0  0
  133.4880  135.1430  147.0690 C   0  0  0  0  0  2  0  0  0  0  0  0
  134.9220  133.6140  145.8230 C   0  0  0  0  0  0  0  0  0  0  0  0
  133.9710  132.9160  145.4880 O   0  0  0  0  0  0  0  0  0  0  0  0
  134.7870  134.7550  146.5810 N   0  0  0  0  0  0  0  0  0  0  0  0
  135.5760  135.3060  146.7890 H   0  0  0  0  0  0  0  0  0  0  0  0
  136.3460  133.2750  145.4320 C   0  0  0  0  0  2  0  0  0  0  0  0
  136.9160  131.7800  143.4620 C   0  0  0  0  0  1  0  0  0  0  0  0
  136.5020  131.8430  144.9260 C   0  0  0  0  0  2  0  0  0  0  0  0
  1  7  2  0  0  0  0
  1  2  1  0  0  0  0
  2  3  2  0  0  0  0
  3  4  1  0  0  0  0
  4  8  1  0  0  0  0
  5  6  1  0  0  0  0
  5  4  2  0  0  0  0
  7  5  1  0  0  0  0
  8  9  1  0  0  0  0
 10  1  1  0  0  0  0
 11 13  1  0  0  0  0
 12 11  2  0  0  0  0
 13 14  1  0  0  0  0
 13 10  1  0  0  0  0
 15 11  1  0  0  0  0
 16 17  1  0  0  0  0
 17 15  1  0  0  0  0
M  END
>  <MODEL>
7

>  <REMARK>
 VINA RESULT:    -5.487      2.245      6.815
 INTER + INTRA:          -7.401
 INTER:                  -7.047
 INTRA:                  -0.354
 UNBOUND:                -0.310
  Name = CHEMBL4453616
  7 active torsions:
  status: ('A' for Active; 'I' for Inactive)
    1  A    between atoms: C_1  and  C_2
    2  A    between atoms: C_2  and  C_3
    3  A    between atoms: C_3  and  C_4
    4  A    between atoms: N_6  and  C_7
    5  A    between atoms: C_7  and  C_8
    6  A    between atoms: C_11  and  O_12
    7  A    between atoms: O_12  and  C_13
                            x       y       z     vdW  Elec       q    Type
                         _______ _______ _______ _____ _____    ______ ____

>  <TORSDO>
F 5

>  <SCORE>
-5.487

>  <RMSD_LB>
2.245

>  <RMSD_UB>
6.815

$$$$
CHEMBL4453616
 OpenBabel10172500223D

 17 17  0  0  0  0  0  0  0  0999 V2000
  134.9130  134.6630  152.9510 C   0  0  0  0  0  0  0  0  0  0  0  0
  134.4070  134.2560  154.1930 C   0  0  0  0  0  3  0  0  0  0  0  0
  134.8940  134.8230  155.3780 C   0  0  0  0  0  3  0  0  0  0  0  0
  135.8980  135.7960  155.3490 C   0  0  0  0  0  0  0  0  0  0  0  0
  136.4110  136.1830  154.1090 C   0  0  0  0  0  0  0  0  0  0  0  0
  137.3730  137.1120  154.0050 F   0  0  0  0  0  0  0  0  0  0  0  0
  135.9320  135.6220  152.9250 C   0  0  0  0  0  3  0  0  0  0  0  0
  136.2670  136.2650  156.5800 O   0  0  0  0  0  0  0  0  0  0  0  0
  137.6040  136.0100  156.9920 C   0  0  0  0  0  1  0  0  0  0  0  0
  134.3830  134.0880  151.6680 C   0  0  0  0  0  2  0  0  0  0  0  0
  133.5630  135.7810  150.1160 C   0  0  0  0  0  0  0  0  0  0  0  0
  132.4680  135.8270  150.6670 O   0  0  0  0  0  0  0  0  0  0  0  0
  134.5900  134.9750  150.5510 N   0  0  0  0  0  0  0  0  0  0  0  0
  135.4650  135.0050  150.1020 H   0  0  0  0  0  0  0  0  0  0  0  0
  133.8830  136.6140  148.8910 C   0  0  0  0  0  2  0  0  0  0  0  0
  132.7090  136.8650  146.6560 C   0  0  0  0  0  1  0  0  0  0  0  0
  132.6360  137.1020  148.1580 C   0  0  0  0  0  2  0  0  0  0  0  0
  1  2  1  0  0  0  0
  2  3  2  0  0  0  0
  4  3  1  0  0  0  0
  4  8  1  0  0  0  0
  5  4  2  0  0  0  0
  6  5  1  0  0  0  0
  7  1  2  0  0  0  0
  7  5  1  0  0  0  0
  8  9  1  0  0  0  0
 10  1  1  0  0  0  0
 11 13  1  0  0  0  0
 11 12  2  0  0  0  0
 13 10  1  0  0  0  0
 14 13  1  0  0  0  0
 15 11  1  0  0  0  0
 16 17  1  0  0  0  0
 17 15  1  0  0  0  0
M  END
>  <MODEL>
8

>  <REMARK>
 VINA RESULT:    -5.400      3.217      7.156
 INTER + INTRA:          -7.289
 INTER:                  -6.979
 INTRA:                  -0.310
 UNBOUND:                -0.310
  Name = CHEMBL4453616
  7 active torsions:
  status: ('A' for Active; 'I' for Inactive)
    1  A    between atoms: C_1  and  C_2
    2  A    between atoms: C_2  and  C_3
    3  A    between atoms: C_3  and  C_4
    4  A    between atoms: N_6  and  C_7
    5  A    between atoms: C_7  and  C_8
    6  A    between atoms: C_11  and  O_12
    7  A    between atoms: O_12  and  C_13
                            x       y       z     vdW  Elec       q    Type
                         _______ _______ _______ _____ _____    ______ ____

>  <TORSDO>
F 5

>  <SCORE>
-5.400

>  <RMSD_LB>
3.217

>  <RMSD_UB>
7.156

$$$$
CHEMBL4453616
 OpenBabel10172500223D

 17 17  0  0  0  0  0  0  0  0999 V2000
  143.7250  138.2750  152.5840 C   0  0  0  0  0  0  0  0  0  0  0  0
  144.5960  137.7120  151.6410 C   0  0  0  0  0  3  0  0  0  0  0  0
  144.0990  136.9140  150.6040 C   0  0  0  0  0  3  0  0  0  0  0  0
  142.7300  136.6550  150.4890 C   0  0  0  0  0  0  0  0  0  0  0  0
  141.8690  137.2040  151.4420 C   0  0  0  0  0  0  0  0  0  0  0  0
  140.5440  137.0000  151.3940 F   0  0  0  0  0  0  0  0  0  0  0  0
  142.3570  137.9980  152.4800 C   0  0  0  0  0  3  0  0  0  0  0  0
  142.3900  135.8700  149.4220 O   0  0  0  0  0  0  0  0  0  0  0  0
  141.8270  136.5250  148.2920 C   0  0  0  0  0  1  0  0  0  0  0  0
  144.2370  139.1570  153.6880 C   0  0  0  0  0  2  0  0  0  0  0  0
  145.9720  140.8600  153.4960 C   0  0  0  0  0  0  0  0  0  0  0  0
  146.7720  140.1870  154.1370 O   0  0  0  0  0  0  0  0  0  0  0  0
  144.7010  140.4280  153.1930 N   0  0  0  0  0  0  0  0  0  0  0  0
  144.1090  140.9870  152.6380 H   0  0  0  0  0  0  0  0  0  0  0  0
  146.3150  142.2410  152.9790 C   0  0  0  0  0  2  0  0  0  0  0  0
  146.5680  142.4020  150.4590 C   0  0  0  0  0  1  0  0  0  0  0  0
  145.6360  142.5680  151.6510 C   0  0  0  0  0  2  0  0  0  0  0  0
  1 10  1  0  0  0  0
  2  1  2  0  0  0  0
  3  2  1  0  0  0  0
  4  3  2  0  0  0  0
  4  5  1  0  0  0  0
  5  7  2  0  0  0  0
  6  5  1  0  0  0  0
  7  1  1  0  0  0  0
  8  4  1  0  0  0  0
  9  8  1  0  0  0  0
 11 12  2  0  0  0  0
 13 11  1  0  0  0  0
 13 10  1  0  0  0  0
 14 13  1  0  0  0  0
 15 11  1  0  0  0  0
 16 17  1  0  0  0  0
 17 15  1  0  0  0  0
M  END
>  <MODEL>
9

>  <REMARK>
 VINA RESULT:    -5.384      9.871     11.334
 INTER + INTRA:          -7.269
 INTER:                  -6.846
 INTRA:                  -0.423
 UNBOUND:                -0.310
  Name = CHEMBL4453616
  7 active torsions:
  status: ('A' for Active; 'I' for Inactive)
    1  A    between atoms: C_1  and  C_2
    2  A    between atoms: C_2  and  C_3
    3  A    between atoms: C_3  and  C_4
    4  A    between atoms: N_6  and  C_7
    5  A    between atoms: C_7  and  C_8
    6  A    between atoms: C_11  and  O_12
    7  A    between atoms: O_12  and  C_13
                            x       y       z     vdW  Elec       q    Type
                         _______ _______ _______ _____ _____    ______ ____

>  <TORSDO>
F 5

>  <SCORE>
-5.384

>  <RMSD_LB>
9.871

>  <RMSD_UB>
11.334

$$$$
