CHEMBL80387
 OpenBabel10162523493D

 22 22  0  0  0  0  0  0  0  0999 V2000
  134.5490  134.0640  152.7770 C   0  0  0  0  0  3  0  0  0  0  0  0
  133.7770  134.7160  151.8890 C   0  0  0  0  0  3  0  0  0  0  0  0
  133.7460  134.3700  150.4640 C   0  0  0  0  0  0  0  0  0  0  0  0
  133.7550  133.0290  150.0640 C   0  0  0  0  0  3  0  0  0  0  0  0
  133.7140  132.7010  148.7050 C   0  0  0  0  0  3  0  0  0  0  0  0
  133.6470  133.7060  147.7390 C   0  0  0  0  0  0  0  0  0  0  0  0
  133.6160  135.0530  148.1170 C   0  0  0  0  0  0  0  0  0  0  0  0
  133.6610  135.3650  149.4810 C   0  0  0  0  0  3  0  0  0  0  0  0
  133.6050  133.3320  146.4250 O   0  0  0  0  0  0  0  0  0  0  0  0
  133.4340  132.4380  146.1980 H   0  0  0  0  0  0  0  0  0  0  0  0
  133.5450  136.1600  147.3140 O   0  0  0  0  0  0  0  0  0  0  0  0
  132.2660  136.7290  147.0820 C   0  0  0  0  0  1  0  0  0  0  0  0
  134.5130  134.4240  154.2180 C   0  0  0  0  0  0  0  0  0  0  0  0
  134.2410  133.5840  155.0760 O   0  0  0  0  0  0  0  0  0  0  0  0
  134.8110  135.8730  154.5560 C   0  0  0  0  0  2  0  0  0  0  0  0
  136.3070  136.1570  154.4870 C   0  0  0  0  0  2  0  0  0  0  0  0
  137.0210  135.7950  155.7880 C   0  0  0  0  0  2  0  0  0  0  0  0
  136.0750  135.9560  156.9780 C   0  0  0  0  0  2  0  0  0  0  0  0
  136.6760  135.3660  158.2520 C   0  0  0  0  0  2  0  0  0  0  0  0
  136.7000  136.4030  159.3740 C   0  0  0  0  0  2  0  0  0  0  0  0
  134.4320  135.7270  160.2180 C   0  0  0  0  0  1  0  0  0  0  0  0
  135.2900  136.8770  159.7170 C   0  0  0  0  0  2  0  0  0  0  0  0
  1 13  1  0  0  0  0
  2  1  2  0  0  0  0
  3  2  1  0  0  0  0
  4  3  1  0  0  0  0
  5  4  2  0  0  0  0
  6  7  2  0  0  0  0
  6  5  1  0  0  0  0
  7  8  1  0  0  0  0
  8  3  2  0  0  0  0
  9  6  1  0  0  0  0
 10  9  1  0  0  0  0
 11  7  1  0  0  0  0
 12 11  1  0  0  0  0
 13 15  1  0  0  0  0
 13 14  2  0  0  0  0
 16 15  1  0  0  0  0
 16 17  1  0  0  0  0
 17 18  1  0  0  0  0
 18 19  1  0  0  0  0
 19 20  1  0  0  0  0
 20 22  1  0  0  0  0
 22 21  1  0  0  0  0
M  END
>  <MODEL>
1

>  <REMARK>
 VINA RESULT:    -6.116      0.000      0.000
 INTER + INTRA:         -10.935
 INTER:                 -10.201
 INTRA:                  -0.734
 UNBOUND:                -1.065
  Name = CHEMBL80387
  13 active torsions:
  status: ('A' for Active; 'I' for Inactive)
    1  A    between atoms: C_1  and  C_2
    2  A    between atoms: C_2  and  C_3
    3  A    between atoms: C_3  and  C_4
    4  A    between atoms: C_4  and  C_5
    5  A    between atoms: C_5  and  C_6
    6  A    between atoms: C_6  and  C_7
    7  A    between atoms: C_7  and  C_8
    8  A    between atoms: C_8  and  C_9
    9  A    between atoms: C_9  and  C_11
   10  A    between atoms: C_12  and  C_13
   11  A    between atoms: C_16  and  O_17
   12  A    between atoms: C_18  and  O_19
   13  A    between atoms: O_19  and  C_20
                            x       y       z     vdW  Elec       q    Type
                         _______ _______ _______ _____ _____    ______ ____

>  <TORSDO>
F 11

>  <SCORE>
-6.116

>  <RMSD_LB>
0.000

>  <RMSD_UB>
0.000

$$$$
CHEMBL80387
 OpenBabel10162523493D

 22 22  0  0  0  0  0  0  0  0999 V2000
  143.2290  137.4760  151.3360 C   0  0  0  0  0  3  0  0  0  0  0  0
  141.9460  137.2290  151.0140 C   0  0  0  0  0  3  0  0  0  0  0  0
  140.8270  137.5790  151.8940 C   0  0  0  0  0  0  0  0  0  0  0  0
  139.5090  137.4690  151.4360 C   0  0  0  0  0  3  0  0  0  0  0  0
  138.4420  137.7930  152.2800 C   0  0  0  0  0  3  0  0  0  0  0  0
  138.6820  138.2110  153.5900 C   0  0  0  0  0  0  0  0  0  0  0  0
  139.9900  138.3080  154.0750 C   0  0  0  0  0  0  0  0  0  0  0  0
  141.0470  137.9840  153.2170 C   0  0  0  0  0  3  0  0  0  0  0  0
  137.6040  138.5120  154.3750 O   0  0  0  0  0  0  0  0  0  0  0  0
  136.9030  139.0300  154.0300 H   0  0  0  0  0  0  0  0  0  0  0  0
  140.4080  138.6900  155.3230 O   0  0  0  0  0  0  0  0  0  0  0  0
  140.5260  137.6870  156.3180 C   0  0  0  0  0  1  0  0  0  0  0  0
  144.3240  137.1410  150.3900 C   0  0  0  0  0  0  0  0  0  0  0  0
  144.7230  135.9820  150.2660 O   0  0  0  0  0  0  0  0  0  0  0  0
  144.9200  138.3000  149.6140 C   0  0  0  0  0  2  0  0  0  0  0  0
  143.9160  139.4380  149.4690 C   0  0  0  0  0  2  0  0  0  0  0  0
  144.3630  140.6950  150.2120 C   0  0  0  0  0  2  0  0  0  0  0  0
  145.8190  141.0220  149.8800 C   0  0  0  0  0  2  0  0  0  0  0  0
  146.2200  142.3930  150.4210 C   0  0  0  0  0  2  0  0  0  0  0  0
  145.6710  142.6050  151.8310 C   0  0  0  0  0  2  0  0  0  0  0  0
  146.1170  140.9870  153.7020 C   0  0  0  0  0  1  0  0  0  0  0  0
  146.6720  142.1430  152.8870 C   0  0  0  0  0  2  0  0  0  0  0  0
  2  1  2  0  0  0  0
  2  3  1  0  0  0  0
  3  8  1  0  0  0  0
  4  3  2  0  0  0  0
  4  5  1  0  0  0  0
  5  6  2  0  0  0  0
  6  7  1  0  0  0  0
  6  9  1  0  0  0  0
  7 11  1  0  0  0  0
  8  7  2  0  0  0  0
 10  9  1  0  0  0  0
 11 12  1  0  0  0  0
 13  1  1  0  0  0  0
 14 13  2  0  0  0  0
 15 13  1  0  0  0  0
 16 15  1  0  0  0  0
 16 17  1  0  0  0  0
 18 17  1  0  0  0  0
 18 19  1  0  0  0  0
 19 20  1  0  0  0  0
 20 22  1  0  0  0  0
 22 21  1  0  0  0  0
M  END
>  <MODEL>
2

>  <REMARK>
 VINA RESULT:    -5.954      8.554     10.939
 INTER + INTRA:         -10.674
 INTER:                  -9.782
 INTRA:                  -0.892
 UNBOUND:                -1.065
  Name = CHEMBL80387
  13 active torsions:
  status: ('A' for Active; 'I' for Inactive)
    1  A    between atoms: C_1  and  C_2
    2  A    between atoms: C_2  and  C_3
    3  A    between atoms: C_3  and  C_4
    4  A    between atoms: C_4  and  C_5
    5  A    between atoms: C_5  and  C_6
    6  A    between atoms: C_6  and  C_7
    7  A    between atoms: C_7  and  C_8
    8  A    between atoms: C_8  and  C_9
    9  A    between atoms: C_9  and  C_11
   10  A    between atoms: C_12  and  C_13
   11  A    between atoms: C_16  and  O_17
   12  A    between atoms: C_18  and  O_19
   13  A    between atoms: O_19  and  C_20
                            x       y       z     vdW  Elec       q    Type
                         _______ _______ _______ _____ _____    ______ ____

>  <TORSDO>
F 11

>  <SCORE>
-5.954

>  <RMSD_LB>
8.554

>  <RMSD_UB>
10.939

$$$$
CHEMBL80387
 OpenBabel10162523493D

 22 22  0  0  0  0  0  0  0  0999 V2000
  137.9200  136.6240  150.7360 C   0  0  0  0  0  3  0  0  0  0  0  0
  138.3880  137.7860  151.2260 C   0  0  0  0  0  3  0  0  0  0  0  0
  139.5080  137.8530  152.1710 C   0  0  0  0  0  0  0  0  0  0  0  0
  140.8140  137.6060  151.7340 C   0  0  0  0  0  3  0  0  0  0  0  0
  141.8820  137.6810  152.6330 C   0  0  0  0  0  3  0  0  0  0  0  0
  141.6560  138.0190  153.9690 C   0  0  0  0  0  0  0  0  0  0  0  0
  140.3610  138.2900  154.4230 C   0  0  0  0  0  0  0  0  0  0  0  0
  139.3020  138.2080  153.5100 C   0  0  0  0  0  3  0  0  0  0  0  0
  142.7340  138.0830  154.8060 O   0  0  0  0  0  0  0  0  0  0  0  0
  143.0730  137.2990  155.1940 H   0  0  0  0  0  0  0  0  0  0  0  0
  139.9580  138.6410  155.6840 O   0  0  0  0  0  0  0  0  0  0  0  0
  138.8820  137.9190  156.2610 C   0  0  0  0  0  1  0  0  0  0  0  0
  136.8110  136.6120  149.7480 C   0  0  0  0  0  0  0  0  0  0  0  0
  136.5790  137.5930  149.0420 O   0  0  0  0  0  0  0  0  0  0  0  0
  135.9880  135.3390  149.6770 C   0  0  0  0  0  2  0  0  0  0  0  0
  135.8680  134.6850  151.0490 C   0  0  0  0  0  2  0  0  0  0  0  0
  134.5790  133.8790  151.1910 C   0  0  0  0  0  2  0  0  0  0  0  0
  133.5990  134.5980  152.1190 C   0  0  0  0  0  2  0  0  0  0  0  0
  134.2690  135.7660  152.8400 C   0  0  0  0  0  2  0  0  0  0  0  0
  133.9450  135.7420  154.3330 C   0  0  0  0  0  2  0  0  0  0  0  0
  136.4470  135.6460  154.5490 C   0  0  0  0  0  1  0  0  0  0  0  0
  135.1200  135.2030  155.1440 C   0  0  0  0  0  2  0  0  0  0  0  0
  1  2  2  0  0  0  0
  2  3  1  0  0  0  0
  3  8  1  0  0  0  0
  4  3  2  0  0  0  0
  4  5  1  0  0  0  0
  5  6  2  0  0  0  0
  6  7  1  0  0  0  0
  6  9  1  0  0  0  0
  7 11  1  0  0  0  0
  8  7  2  0  0  0  0
  9 10  1  0  0  0  0
 11 12  1  0  0  0  0
 13  1  1  0  0  0  0
 14 13  2  0  0  0  0
 15 13  1  0  0  0  0
 15 16  1  0  0  0  0
 16 17  1  0  0  0  0
 17 18  1  0  0  0  0
 18 19  1  0  0  0  0
 19 20  1  0  0  0  0
 20 22  1  0  0  0  0
 21 22  1  0  0  0  0
M  END
>  <MODEL>
3

>  <REMARK>
 VINA RESULT:    -5.921      4.277      7.859
 INTER + INTRA:         -10.621
 INTER:                  -9.264
 INTRA:                  -1.357
 UNBOUND:                -1.065
  Name = CHEMBL80387
  13 active torsions:
  status: ('A' for Active; 'I' for Inactive)
    1  A    between atoms: C_1  and  C_2
    2  A    between atoms: C_2  and  C_3
    3  A    between atoms: C_3  and  C_4
    4  A    between atoms: C_4  and  C_5
    5  A    between atoms: C_5  and  C_6
    6  A    between atoms: C_6  and  C_7
    7  A    between atoms: C_7  and  C_8
    8  A    between atoms: C_8  and  C_9
    9  A    between atoms: C_9  and  C_11
   10  A    between atoms: C_12  and  C_13
   11  A    between atoms: C_16  and  O_17
   12  A    between atoms: C_18  and  O_19
   13  A    between atoms: O_19  and  C_20
                            x       y       z     vdW  Elec       q    Type
                         _______ _______ _______ _____ _____    ______ ____

>  <TORSDO>
F 11

>  <SCORE>
-5.921

>  <RMSD_LB>
4.277

>  <RMSD_UB>
7.859

$$$$
CHEMBL80387
 OpenBabel10162523493D

 22 22  0  0  0  0  0  0  0  0999 V2000
  143.8020  137.7800  152.8110 C   0  0  0  0  0  3  0  0  0  0  0  0
  142.9350  138.4930  153.5520 C   0  0  0  0  0  3  0  0  0  0  0  0
  141.4830  138.2950  153.4820 C   0  0  0  0  0  0  0  0  0  0  0  0
  140.8760  137.9620  152.2650 C   0  0  0  0  0  3  0  0  0  0  0  0
  139.4930  137.7620  152.2010 C   0  0  0  0  0  3  0  0  0  0  0  0
  138.7110  137.8770  153.3520 C   0  0  0  0  0  0  0  0  0  0  0  0
  139.3000  138.1890  154.5820 C   0  0  0  0  0  0  0  0  0  0  0  0
  140.6840  138.3890  154.6280 C   0  0  0  0  0  3  0  0  0  0  0  0
  137.3650  137.6690  153.2360 O   0  0  0  0  0  0  0  0  0  0  0  0
  137.0450  136.8720  152.8600 H   0  0  0  0  0  0  0  0  0  0  0  0
  138.6940  138.3340  155.8020 O   0  0  0  0  0  0  0  0  0  0  0  0
  139.2650  137.6560  156.9100 C   0  0  0  0  0  1  0  0  0  0  0  0
  145.2660  137.9890  152.9500 C   0  0  0  0  0  0  0  0  0  0  0  0
  146.0430  137.6570  152.0540 O   0  0  0  0  0  0  0  0  0  0  0  0
  145.7350  138.6120  154.2510 C   0  0  0  0  0  2  0  0  0  0  0  0
  147.1250  138.1130  154.6290 C   0  0  0  0  0  2  0  0  0  0  0  0
  148.0840  139.2630  154.9330 C   0  0  0  0  0  2  0  0  0  0  0  0
  148.4730  139.9880  153.6440 C   0  0  0  0  0  2  0  0  0  0  0  0
  148.1850  141.4850  153.7380 C   0  0  0  0  0  2  0  0  0  0  0  0
  147.5760  142.0060  152.4370 C   0  0  0  0  0  2  0  0  0  0  0  0
  145.2660  141.6730  151.5060 C   0  0  0  0  0  1  0  0  0  0  0  0
  146.0910  142.3160  152.6080 C   0  0  0  0  0  2  0  0  0  0  0  0
  1 13  1  0  0  0  0
  1  2  2  0  0  0  0
  3  2  1  0  0  0  0
  3  8  1  0  0  0  0
  4  3  2  0  0  0  0
  5  4  1  0  0  0  0
  5  6  2  0  0  0  0
  6  7  1  0  0  0  0
  7  8  2  0  0  0  0
  7 11  1  0  0  0  0
  9  6  1  0  0  0  0
 10  9  1  0  0  0  0
 11 12  1  0  0  0  0
 13 15  1  0  0  0  0
 14 13  2  0  0  0  0
 15 16  1  0  0  0  0
 16 17  1  0  0  0  0
 18 19  1  0  0  0  0
 18 17  1  0  0  0  0
 20 22  1  0  0  0  0
 20 19  1  0  0  0  0
 21 22  1  0  0  0  0
M  END
>  <MODEL>
4

>  <REMARK>
 VINA RESULT:    -5.851      8.775     11.298
 INTER + INTRA:         -10.507
 INTER:                  -9.378
 INTRA:                  -1.129
 UNBOUND:                -1.065
  Name = CHEMBL80387
  13 active torsions:
  status: ('A' for Active; 'I' for Inactive)
    1  A    between atoms: C_1  and  C_2
    2  A    between atoms: C_2  and  C_3
    3  A    between atoms: C_3  and  C_4
    4  A    between atoms: C_4  and  C_5
    5  A    between atoms: C_5  and  C_6
    6  A    between atoms: C_6  and  C_7
    7  A    between atoms: C_7  and  C_8
    8  A    between atoms: C_8  and  C_9
    9  A    between atoms: C_9  and  C_11
   10  A    between atoms: C_12  and  C_13
   11  A    between atoms: C_16  and  O_17
   12  A    between atoms: C_18  and  O_19
   13  A    between atoms: O_19  and  C_20
                            x       y       z     vdW  Elec       q    Type
                         _______ _______ _______ _____ _____    ______ ____

>  <TORSDO>
F 11

>  <SCORE>
-5.851

>  <RMSD_LB>
8.775

>  <RMSD_UB>
11.298

$$$$
CHEMBL80387
 OpenBabel10162523493D

 22 22  0  0  0  0  0  0  0  0999 V2000
  142.3950  136.9180  150.6310 C   0  0  0  0  0  3  0  0  0  0  0  0
  142.4090  137.3640  151.9000 C   0  0  0  0  0  3  0  0  0  0  0  0
  141.2020  137.8310  152.5900 C   0  0  0  0  0  0  0  0  0  0  0  0
  140.0240  138.0620  151.8690 C   0  0  0  0  0  3  0  0  0  0  0  0
  138.8700  138.4960  152.5290 C   0  0  0  0  0  3  0  0  0  0  0  0
  138.8790  138.6870  153.9130 C   0  0  0  0  0  0  0  0  0  0  0  0
  140.0400  138.4430  154.6550 C   0  0  0  0  0  0  0  0  0  0  0  0
  141.1870  138.0110  153.9790 C   0  0  0  0  0  3  0  0  0  0  0  0
  137.7250  139.1080  154.5100 O   0  0  0  0  0  0  0  0  0  0  0  0
  136.9650  139.2850  153.9890 H   0  0  0  0  0  0  0  0  0  0  0  0
  140.2270  138.5680  156.0060 O   0  0  0  0  0  0  0  0  0  0  0  0
  140.4800  137.3890  156.7530 C   0  0  0  0  0  1  0  0  0  0  0  0
  143.6370  136.4160  149.9910 C   0  0  0  0  0  0  0  0  0  0  0  0
  143.6340  135.3840  149.3200 O   0  0  0  0  0  0  0  0  0  0  0  0
  144.8930  137.2350  150.2280 C   0  0  0  0  0  2  0  0  0  0  0  0
  146.1040  136.3340  150.4410 C   0  0  0  0  0  2  0  0  0  0  0  0
  146.7170  136.5150  151.8280 C   0  0  0  0  0  2  0  0  0  0  0  0
  145.9710  137.6010  152.6030 C   0  0  0  0  0  2  0  0  0  0  0  0
  145.9470  137.3010  154.1010 C   0  0  0  0  0  2  0  0  0  0  0  0
  146.1230  138.5810  154.9160 C   0  0  0  0  0  2  0  0  0  0  0  0
  148.1960  137.3320  155.5920 C   0  0  0  0  0  1  0  0  0  0  0  0
  147.5460  138.6990  155.4570 C   0  0  0  0  0  2  0  0  0  0  0  0
  1  2  2  0  0  0  0
  2  3  1  0  0  0  0
  3  8  1  0  0  0  0
  4  5  1  0  0  0  0
  4  3  2  0  0  0  0
  5  6  2  0  0  0  0
  6  9  1  0  0  0  0
  6  7  1  0  0  0  0
  7 11  1  0  0  0  0
  8  7  2  0  0  0  0
 10  9  1  0  0  0  0
 11 12  1  0  0  0  0
 13 15  1  0  0  0  0
 13  1  1  0  0  0  0
 14 13  2  0  0  0  0
 15 16  1  0  0  0  0
 16 17  1  0  0  0  0
 17 18  1  0  0  0  0
 18 19  1  0  0  0  0
 19 20  1  0  0  0  0
 20 22  1  0  0  0  0
 22 21  1  0  0  0  0
M  END
>  <MODEL>
5

>  <REMARK>
 VINA RESULT:    -5.805      8.035     10.563
 INTER + INTRA:         -10.434
 INTER:                  -9.227
 INTRA:                  -1.206
 UNBOUND:                -1.065
  Name = CHEMBL80387
  13 active torsions:
  status: ('A' for Active; 'I' for Inactive)
    1  A    between atoms: C_1  and  C_2
    2  A    between atoms: C_2  and  C_3
    3  A    between atoms: C_3  and  C_4
    4  A    between atoms: C_4  and  C_5
    5  A    between atoms: C_5  and  C_6
    6  A    between atoms: C_6  and  C_7
    7  A    between atoms: C_7  and  C_8
    8  A    between atoms: C_8  and  C_9
    9  A    between atoms: C_9  and  C_11
   10  A    between atoms: C_12  and  C_13
   11  A    between atoms: C_16  and  O_17
   12  A    between atoms: C_18  and  O_19
   13  A    between atoms: O_19  and  C_20
                            x       y       z     vdW  Elec       q    Type
                         _______ _______ _______ _____ _____    ______ ____

>  <TORSDO>
F 11

>  <SCORE>
-5.805

>  <RMSD_LB>
8.035

>  <RMSD_UB>
10.563

$$$$
CHEMBL80387
 OpenBabel10162523493D

 22 22  0  0  0  0  0  0  0  0999 V2000
  136.5080  135.4900  149.9600 C   0  0  0  0  0  3  0  0  0  0  0  0
  136.2130  136.1870  151.0720 C   0  0  0  0  0  3  0  0  0  0  0  0
  135.7040  135.5530  152.2920 C   0  0  0  0  0  0  0  0  0  0  0  0
  134.7840  134.5020  152.2090 C   0  0  0  0  0  3  0  0  0  0  0  0
  134.3080  133.8900  153.3730 C   0  0  0  0  0  3  0  0  0  0  0  0
  134.7580  134.3120  154.6250 C   0  0  0  0  0  0  0  0  0  0  0  0
  135.6930  135.3480  154.7310 C   0  0  0  0  0  0  0  0  0  0  0  0
  136.1570  135.9510  153.5570 C   0  0  0  0  0  3  0  0  0  0  0  0
  134.2650  133.6790  155.7310 O   0  0  0  0  0  0  0  0  0  0  0  0
  134.5670  132.8200  155.9530 H   0  0  0  0  0  0  0  0  0  0  0  0
  136.2460  135.8810  155.8650 O   0  0  0  0  0  0  0  0  0  0  0  0
  136.5610  137.2650  155.8610 C   0  0  0  0  0  1  0  0  0  0  0  0
  137.0610  136.1730  148.7630 C   0  0  0  0  0  0  0  0  0  0  0  0
  137.3940  137.3580  148.8050 O   0  0  0  0  0  0  0  0  0  0  0  0
  137.1720  135.3370  147.5020 C   0  0  0  0  0  2  0  0  0  0  0  0
  136.9000  133.8650  147.7930 C   0  0  0  0  0  2  0  0  0  0  0  0
  135.8140  133.2920  146.8840 C   0  0  0  0  0  2  0  0  0  0  0  0
  134.4450  133.8550  147.2690 C   0  0  0  0  0  2  0  0  0  0  0  0
  133.8800  133.1530  148.5030 C   0  0  0  0  0  2  0  0  0  0  0  0
  132.8870  134.0550  149.2350 C   0  0  0  0  0  2  0  0  0  0  0  0
  132.8420  136.5110  149.7650 C   0  0  0  0  0  1  0  0  0  0  0  0
  132.8990  135.4690  148.6600 C   0  0  0  0  0  2  0  0  0  0  0  0
  1  2  2  0  0  0  0
  2  3  1  0  0  0  0
  3  8  1  0  0  0  0
  4  3  2  0  0  0  0
  4  5  1  0  0  0  0
  5  6  2  0  0  0  0
  6  7  1  0  0  0  0
  6  9  1  0  0  0  0
  7 11  1  0  0  0  0
  8  7  2  0  0  0  0
  9 10  1  0  0  0  0
 12 11  1  0  0  0  0
 13 14  2  0  0  0  0
 13  1  1  0  0  0  0
 15 16  1  0  0  0  0
 15 13  1  0  0  0  0
 17 18  1  0  0  0  0
 17 16  1  0  0  0  0
 18 19  1  0  0  0  0
 19 20  1  0  0  0  0
 22 20  1  0  0  0  0
 22 21  1  0  0  0  0
M  END
>  <MODEL>
6

>  <REMARK>
 VINA RESULT:    -5.793      2.602      7.918
 INTER + INTRA:         -10.414
 INTER:                  -8.401
 INTRA:                  -2.013
 UNBOUND:                -1.065
  Name = CHEMBL80387
  13 active torsions:
  status: ('A' for Active; 'I' for Inactive)
    1  A    between atoms: C_1  and  C_2
    2  A    between atoms: C_2  and  C_3
    3  A    between atoms: C_3  and  C_4
    4  A    between atoms: C_4  and  C_5
    5  A    between atoms: C_5  and  C_6
    6  A    between atoms: C_6  and  C_7
    7  A    between atoms: C_7  and  C_8
    8  A    between atoms: C_8  and  C_9
    9  A    between atoms: C_9  and  C_11
   10  A    between atoms: C_12  and  C_13
   11  A    between atoms: C_16  and  O_17
   12  A    between atoms: C_18  and  O_19
   13  A    between atoms: O_19  and  C_20
                            x       y       z     vdW  Elec       q    Type
                         _______ _______ _______ _____ _____    ______ ____

>  <TORSDO>
F 11

>  <SCORE>
-5.793

>  <RMSD_LB>
2.602

>  <RMSD_UB>
7.918

$$$$
CHEMBL80387
 OpenBabel10162523493D

 22 22  0  0  0  0  0  0  0  0999 V2000
  144.1560  140.0070  149.5930 C   0  0  0  0  0  3  0  0  0  0  0  0
  143.8080  139.1840  150.5990 C   0  0  0  0  0  3  0  0  0  0  0  0
  142.4140  138.9740  151.0040 C   0  0  0  0  0  0  0  0  0  0  0  0
  142.0730  137.8830  151.8120 C   0  0  0  0  0  3  0  0  0  0  0  0
  140.7460  137.6890  152.2070 C   0  0  0  0  0  3  0  0  0  0  0  0
  139.7540  138.5900  151.8130 C   0  0  0  0  0  0  0  0  0  0  0  0
  140.0770  139.6990  151.0230 C   0  0  0  0  0  0  0  0  0  0  0  0
  141.4090  139.8770  150.6330 C   0  0  0  0  0  3  0  0  0  0  0  0
  138.4740  138.3580  152.2300 O   0  0  0  0  0  0  0  0  0  0  0  0
  137.7860  138.9430  151.9770 H   0  0  0  0  0  0  0  0  0  0  0  0
  139.2440  140.6800  150.5540 O   0  0  0  0  0  0  0  0  0  0  0  0
  138.4450  140.3840  149.4190 C   0  0  0  0  0  1  0  0  0  0  0  0
  145.5780  140.1540  149.1930 C   0  0  0  0  0  0  0  0  0  0  0  0
  146.0140  139.6010  148.1830 O   0  0  0  0  0  0  0  0  0  0  0  0
  146.4490  141.0010  150.1020 C   0  0  0  0  0  2  0  0  0  0  0  0
  145.8180  142.3660  150.3520 C   0  0  0  0  0  2  0  0  0  0  0  0
  145.5990  142.6350  151.8390 C   0  0  0  0  0  2  0  0  0  0  0  0
  146.8250  142.2030  152.6450 C   0  0  0  0  0  2  0  0  0  0  0  0
  146.4230  141.5470  153.9640 C   0  0  0  0  0  2  0  0  0  0  0  0
  145.4860  140.3650  153.7210 C   0  0  0  0  0  2  0  0  0  0  0  0
  147.3210  138.9480  154.6940 C   0  0  0  0  0  1  0  0  0  0  0  0
  146.2670  139.0580  153.6040 C   0  0  0  0  0  2  0  0  0  0  0  0
  1  2  2  0  0  0  0
  2  3  1  0  0  0  0
  3  4  1  0  0  0  0
  4  5  2  0  0  0  0
  6  5  1  0  0  0  0
  6  9  1  0  0  0  0
  7  6  2  0  0  0  0
  8  3  2  0  0  0  0
  8  7  1  0  0  0  0
 10  9  1  0  0  0  0
 11  7  1  0  0  0  0
 12 11  1  0  0  0  0
 13  1  1  0  0  0  0
 13 15  1  0  0  0  0
 14 13  2  0  0  0  0
 15 16  1  0  0  0  0
 16 17  1  0  0  0  0
 17 18  1  0  0  0  0
 18 19  1  0  0  0  0
 20 19  1  0  0  0  0
 22 20  1  0  0  0  0
 22 21  1  0  0  0  0
M  END
>  <MODEL>
7

>  <REMARK>
 VINA RESULT:    -5.675      9.510     11.253
 INTER + INTRA:         -10.224
 INTER:                  -8.632
 INTRA:                  -1.592
 UNBOUND:                -1.065
  Name = CHEMBL80387
  13 active torsions:
  status: ('A' for Active; 'I' for Inactive)
    1  A    between atoms: C_1  and  C_2
    2  A    between atoms: C_2  and  C_3
    3  A    between atoms: C_3  and  C_4
    4  A    between atoms: C_4  and  C_5
    5  A    between atoms: C_5  and  C_6
    6  A    between atoms: C_6  and  C_7
    7  A    between atoms: C_7  and  C_8
    8  A    between atoms: C_8  and  C_9
    9  A    between atoms: C_9  and  C_11
   10  A    between atoms: C_12  and  C_13
   11  A    between atoms: C_16  and  O_17
   12  A    between atoms: C_18  and  O_19
   13  A    between atoms: O_19  and  C_20
                            x       y       z     vdW  Elec       q    Type
                         _______ _______ _______ _____ _____    ______ ____

>  <TORSDO>
F 11

>  <SCORE>
-5.675

>  <RMSD_LB>
9.510

>  <RMSD_UB>
11.253

$$$$
CHEMBL80387
 OpenBabel10162523493D

 22 22  0  0  0  0  0  0  0  0999 V2000
  137.9260  137.3320  150.5610 C   0  0  0  0  0  3  0  0  0  0  0  0
  137.2200  136.9630  151.6440 C   0  0  0  0  0  3  0  0  0  0  0  0
  136.1740  135.9370  151.5960 C   0  0  0  0  0  0  0  0  0  0  0  0
  136.0790  135.0790  150.4940 C   0  0  0  0  0  3  0  0  0  0  0  0
  135.0890  134.0930  150.4540 C   0  0  0  0  0  3  0  0  0  0  0  0
  134.1970  133.9460  151.5190 C   0  0  0  0  0  0  0  0  0  0  0  0
  134.2860  134.7790  152.6390 C   0  0  0  0  0  0  0  0  0  0  0  0
  135.2810  135.7630  152.6620 C   0  0  0  0  0  3  0  0  0  0  0  0
  133.2500  132.9640  151.4320 O   0  0  0  0  0  0  0  0  0  0  0  0
  132.3980  133.1640  151.0950 H   0  0  0  0  0  0  0  0  0  0  0  0
  133.5090  134.7730  153.7670 O   0  0  0  0  0  0  0  0  0  0  0  0
  133.9190  135.5810  154.8590 C   0  0  0  0  0  1  0  0  0  0  0  0
  139.0050  138.3470  150.6710 C   0  0  0  0  0  0  0  0  0  0  0  0
  139.5300  138.8280  149.6660 O   0  0  0  0  0  0  0  0  0  0  0  0
  139.4220  138.7360  152.0770 C   0  0  0  0  0  2  0  0  0  0  0  0
  140.4210  137.7370  152.6490 C   0  0  0  0  0  2  0  0  0  0  0  0
  141.1820  138.3070  153.8440 C   0  0  0  0  0  2  0  0  0  0  0  0
  140.2060  138.8460  154.8910 C   0  0  0  0  0  2  0  0  0  0  0  0
  139.2950  137.7410  155.4240 C   0  0  0  0  0  2  0  0  0  0  0  0
  137.8240  138.1190  155.2550 C   0  0  0  0  0  2  0  0  0  0  0  0
  137.3970  135.8430  156.2320 C   0  0  0  0  0  1  0  0  0  0  0  0
  136.9330  137.2890  156.1760 C   0  0  0  0  0  2  0  0  0  0  0  0
  1 13  1  0  0  0  0
  1  2  2  0  0  0  0
  3  2  1  0  0  0  0
  3  8  1  0  0  0  0
  4  3  2  0  0  0  0
  5  4  1  0  0  0  0
  5  6  2  0  0  0  0
  6  7  1  0  0  0  0
  7  8  2  0  0  0  0
  7 11  1  0  0  0  0
  9  6  1  0  0  0  0
 10  9  1  0  0  0  0
 11 12  1  0  0  0  0
 13 15  1  0  0  0  0
 14 13  2  0  0  0  0
 15 16  1  0  0  0  0
 16 17  1  0  0  0  0
 17 18  1  0  0  0  0
 18 19  1  0  0  0  0
 20 19  1  0  0  0  0
 20 22  1  0  0  0  0
 22 21  1  0  0  0  0
M  END
>  <MODEL>
8

>  <REMARK>
 VINA RESULT:    -5.657      3.479      5.266
 INTER + INTRA:         -10.195
 INTER:                  -8.954
 INTRA:                  -1.241
 UNBOUND:                -1.065
  Name = CHEMBL80387
  13 active torsions:
  status: ('A' for Active; 'I' for Inactive)
    1  A    between atoms: C_1  and  C_2
    2  A    between atoms: C_2  and  C_3
    3  A    between atoms: C_3  and  C_4
    4  A    between atoms: C_4  and  C_5
    5  A    between atoms: C_5  and  C_6
    6  A    between atoms: C_6  and  C_7
    7  A    between atoms: C_7  and  C_8
    8  A    between atoms: C_8  and  C_9
    9  A    between atoms: C_9  and  C_11
   10  A    between atoms: C_12  and  C_13
   11  A    between atoms: C_16  and  O_17
   12  A    between atoms: C_18  and  O_19
   13  A    between atoms: O_19  and  C_20
                            x       y       z     vdW  Elec       q    Type
                         _______ _______ _______ _____ _____    ______ ____

>  <TORSDO>
F 11

>  <SCORE>
-5.657

>  <RMSD_LB>
3.479

>  <RMSD_UB>
5.266

$$$$
CHEMBL80387
 OpenBabel10162523493D

 22 22  0  0  0  0  0  0  0  0999 V2000
  136.2760  136.5630  155.9300 C   0  0  0  0  0  3  0  0  0  0  0  0
  136.3770  135.5320  155.0710 C   0  0  0  0  0  3  0  0  0  0  0  0
  135.5900  135.4490  153.8370 C   0  0  0  0  0  0  0  0  0  0  0  0
  134.3280  134.8450  153.8450 C   0  0  0  0  0  3  0  0  0  0  0  0
  133.5740  134.7770  152.6700 C   0  0  0  0  0  3  0  0  0  0  0  0
  134.0670  135.3240  151.4830 C   0  0  0  0  0  0  0  0  0  0  0  0
  135.3170  135.9510  151.4570 C   0  0  0  0  0  0  0  0  0  0  0  0
  136.0610  136.0080  152.6410 C   0  0  0  0  0  3  0  0  0  0  0  0
  133.2890  135.2350  150.3630 O   0  0  0  0  0  0  0  0  0  0  0  0
  132.6780  134.5280  150.2720 H   0  0  0  0  0  0  0  0  0  0  0  0
  135.9490  136.5430  150.3950 O   0  0  0  0  0  0  0  0  0  0  0  0
  137.2640  137.0360  150.5980 C   0  0  0  0  0  1  0  0  0  0  0  0
  137.1260  136.6210  157.1460 C   0  0  0  0  0  0  0  0  0  0  0  0
  136.9580  135.8310  158.0770 O   0  0  0  0  0  0  0  0  0  0  0  0
  138.1850  137.7060  157.1750 C   0  0  0  0  0  2  0  0  0  0  0  0
  139.4400  137.2700  156.4270 C   0  0  0  0  0  2  0  0  0  0  0  0
  139.6390  138.0560  155.1320 C   0  0  0  0  0  2  0  0  0  0  0  0
  141.0550  138.6300  155.0690 C   0  0  0  0  0  2  0  0  0  0  0  0
  141.6560  138.4790  153.6730 C   0  0  0  0  0  2  0  0  0  0  0  0
  140.5580  138.3800  152.6150 C   0  0  0  0  0  2  0  0  0  0  0  0
  142.4130  137.1600  151.4380 C   0  0  0  0  0  1  0  0  0  0  0  0
  140.9080  137.3420  151.5520 C   0  0  0  0  0  2  0  0  0  0  0  0
  1 13  1  0  0  0  0
  2  1  2  0  0  0  0
  3  4  1  0  0  0  0
  3  2  1  0  0  0  0
  5  4  2  0  0  0  0
  6  5  1  0  0  0  0
  7  6  2  0  0  0  0
  7  8  1  0  0  0  0
  8  3  2  0  0  0  0
  9  6  1  0  0  0  0
 10  9  1  0  0  0  0
 11 12  1  0  0  0  0
 11  7  1  0  0  0  0
 13 15  1  0  0  0  0
 13 14  2  0  0  0  0
 16 15  1  0  0  0  0
 17 16  1  0  0  0  0
 18 17  1  0  0  0  0
 19 18  1  0  0  0  0
 20 19  1  0  0  0  0
 21 22  1  0  0  0  0
 22 20  1  0  0  0  0
M  END
>  <MODEL>
9

>  <REMARK>
 VINA RESULT:    -5.629      3.578      5.765
 INTER + INTRA:         -10.150
 INTER:                  -9.085
 INTRA:                  -1.065
 UNBOUND:                -1.065
  Name = CHEMBL80387
  13 active torsions:
  status: ('A' for Active; 'I' for Inactive)
    1  A    between atoms: C_1  and  C_2
    2  A    between atoms: C_2  and  C_3
    3  A    between atoms: C_3  and  C_4
    4  A    between atoms: C_4  and  C_5
    5  A    between atoms: C_5  and  C_6
    6  A    between atoms: C_6  and  C_7
    7  A    between atoms: C_7  and  C_8
    8  A    between atoms: C_8  and  C_9
    9  A    between atoms: C_9  and  C_11
   10  A    between atoms: C_12  and  C_13
   11  A    between atoms: C_16  and  O_17
   12  A    between atoms: C_18  and  O_19
   13  A    between atoms: O_19  and  C_20
                            x       y       z     vdW  Elec       q    Type
                         _______ _______ _______ _____ _____    ______ ____

>  <TORSDO>
F 11

>  <SCORE>
-5.629

>  <RMSD_LB>
3.578

>  <RMSD_UB>
5.765

$$$$
