CHEMBL80199
 OpenBabel10172500513D

 26 27  0  0  0  0  0  0  0  0999 V2000
  142.9490  139.5640  152.0530 N   0  0  0  0  0  0  0  0  0  0  0  0
  142.4940  138.2800  151.8820 C   0  0  0  0  0  0  0  0  0  0  0  0
  142.9880  137.4650  151.1130 O   0  0  0  0  0  0  0  0  0  0  0  0
  142.4760  140.1560  152.6800 H   0  0  0  0  0  0  0  0  0  0  0  0
  141.3120  137.9650  152.7250 C   0  0  0  0  0  3  0  0  0  0  0  0
  141.1610  138.5560  153.9220 C   0  0  0  0  0  3  0  0  0  0  0  0
  140.0460  138.2910  154.8470 C   0  0  0  0  0  0  0  0  0  0  0  0
  140.2590  137.7950  156.1430 C   0  0  0  0  0  3  0  0  0  0  0  0
  139.1880  137.5860  157.0180 C   0  0  0  0  0  3  0  0  0  0  0  0
  137.8890  137.8880  156.6010 C   0  0  0  0  0  0  0  0  0  0  0  0
  137.6560  138.4050  155.3200 C   0  0  0  0  0  3  0  0  0  0  0  0
  138.7390  138.6050  154.4530 C   0  0  0  0  0  3  0  0  0  0  0  0
  136.7640  137.6680  157.5190 N   0  0  0  0  0  0  0  0  0  0  0  0
  136.4270  138.6060  158.2520 O   0  0  0  0  0  0  0  0  0  0  0  0
  136.2210  136.5520  157.5060 O   0  0  0  0  0  0  0  0  0  0  0  0
  144.1010  140.0730  151.3390 C   0  0  0  0  0  2  0  0  0  0  0  0
  146.6790  140.1050  154.1710 C   0  0  0  0  0  0  0  0  0  0  0  0
  145.6820  139.6830  153.2840 C   0  0  0  0  0  3  0  0  0  0  0  0
  145.2150  140.5240  152.2560 C   0  0  0  0  0  0  0  0  0  0  0  0
  145.7580  141.8110  152.1400 C   0  0  0  0  0  3  0  0  0  0  0  0
  146.7480  142.2470  153.0230 C   0  0  0  0  0  3  0  0  0  0  0  0
  147.2030  141.3960  154.0290 C   0  0  0  0  0  0  0  0  0  0  0  0
  147.6140  138.0310  154.8800 C   0  0  0  0  0  1  0  0  0  0  0  0
  147.1890  139.3500  155.1950 O   0  0  0  0  0  0  0  0  0  0  0  0
  148.1720  141.8260  154.8980 O   0  0  0  0  0  0  0  0  0  0  0  0
  148.4340  142.7250  154.9010 H   0  0  0  0  0  0  0  0  0  0  0  0
  1  4  1  0  0  0  0
  2  1  1  0  0  0  0
  2  5  1  0  0  0  0
  3  2  2  0  0  0  0
  5  6  2  0  0  0  0
  6  7  1  0  0  0  0
  7  8  1  0  0  0  0
  8  9  2  0  0  0  0
 10  9  1  0  0  0  0
 10 13  1  0  0  0  0
 11 10  2  0  0  0  0
 12  7  2  0  0  0  0
 12 11  1  0  0  0  0
 13 14  2  0  0  0  0
 15 13  2  0  0  0  0
 16  1  1  0  0  0  0
 16 19  1  0  0  0  0
 17 24  1  0  0  0  0
 18 17  2  0  0  0  0
 19 18  1  0  0  0  0
 20 19  2  0  0  0  0
 20 21  1  0  0  0  0
 21 22  2  0  0  0  0
 22 17  1  0  0  0  0
 22 25  1  0  0  0  0
 23 24  1  0  0  0  0
 25 26  1  0  0  0  0
M  END
>  <MODEL>
1

>  <REMARK>
 VINA RESULT:    -7.875      0.000      0.000
 INTER + INTRA:         -11.507
 INTER:                 -10.849
 INTRA:                  -0.658
 UNBOUND:                -0.640
  Name = CHEMBL80199
  8 active torsions:
  status: ('A' for Active; 'I' for Inactive)
    1  A    between atoms: C_1  and  O_2
    2  A    between atoms: O_2  and  C_3
    3  A    between atoms: C_5  and  C_6
    4  A    between atoms: C_6  and  N_7
    5  A    between atoms: C_8  and  C_10
    6  A    between atoms: C_11  and  C_12
    7  A    between atoms: C_15  and  N_16
    8  A    between atoms: C_23  and  O_24
                            x       y       z     vdW  Elec       q    Type
                         _______ _______ _______ _____ _____    ______ ____

>  <TORSDO>
F 7

>  <SCORE>
-7.875

>  <RMSD_LB>
0.000

>  <RMSD_UB>
0.000

$$$$
CHEMBL80199
 OpenBabel10172500513D

 26 27  0  0  0  0  0  0  0  0999 V2000
  138.8200  137.4970  155.0260 N   0  0  0  0  0  0  0  0  0  0  0  0
  139.4370  138.5700  154.4320 C   0  0  0  0  0  0  0  0  0  0  0  0
  138.9500  139.6900  154.3480 O   0  0  0  0  0  0  0  0  0  0  0  0
  139.2800  136.6260  155.0300 H   0  0  0  0  0  0  0  0  0  0  0  0
  140.7730  138.2370  153.8760 C   0  0  0  0  0  3  0  0  0  0  0  0
  140.8920  137.8400  152.5980 C   0  0  0  0  0  3  0  0  0  0  0  0
  142.1620  137.4570  151.9590 C   0  0  0  0  0  0  0  0  0  0  0  0
  143.3890  137.5400  152.6360 C   0  0  0  0  0  3  0  0  0  0  0  0
  144.5780  137.1360  152.0210 C   0  0  0  0  0  3  0  0  0  0  0  0
  144.5450  136.6290  150.7200 C   0  0  0  0  0  0  0  0  0  0  0  0
  143.3280  136.5170  150.0340 C   0  0  0  0  0  3  0  0  0  0  0  0
  142.1450  136.9290  150.6610 C   0  0  0  0  0  3  0  0  0  0  0  0
  145.7940  136.2060  150.0740 N   0  0  0  0  0  0  0  0  0  0  0  0
  145.9540  136.5010  148.8830 O   0  0  0  0  0  0  0  0  0  0  0  0
  146.6110  135.5750  150.7620 O   0  0  0  0  0  0  0  0  0  0  0  0
  137.5170  137.6040  155.6470 C   0  0  0  0  0  2  0  0  0  0  0  0
  134.8310  134.8750  155.6550 C   0  0  0  0  0  0  0  0  0  0  0  0
  135.7030  135.8840  156.0780 C   0  0  0  0  0  3  0  0  0  0  0  0
  136.5430  136.5530  155.1670 C   0  0  0  0  0  0  0  0  0  0  0  0
  136.5050  136.1800  153.8160 C   0  0  0  0  0  3  0  0  0  0  0  0
  135.6440  135.1690  153.3830 C   0  0  0  0  0  3  0  0  0  0  0  0
  134.8140  134.5250  154.3000 C   0  0  0  0  0  0  0  0  0  0  0  0
  133.9010  134.5930  157.8310 C   0  0  0  0  0  1  0  0  0  0  0  0
  133.9820  134.1770  156.4740 O   0  0  0  0  0  0  0  0  0  0  0  0
  133.9730  133.5300  153.8740 O   0  0  0  0  0  0  0  0  0  0  0  0
  133.0480  133.6740  153.8570 H   0  0  0  0  0  0  0  0  0  0  0  0
  1  4  1  0  0  0  0
  1 16  1  0  0  0  0
  2  1  1  0  0  0  0
  3  2  2  0  0  0  0
  5  2  1  0  0  0  0
  6  5  2  0  0  0  0
  7  6  1  0  0  0  0
  7  8  1  0  0  0  0
  9  8  2  0  0  0  0
 10  9  1  0  0  0  0
 11 12  1  0  0  0  0
 11 10  2  0  0  0  0
 12  7  2  0  0  0  0
 13 10  1  0  0  0  0
 13 15  2  0  0  0  0
 14 13  2  0  0  0  0
 17 18  1  0  0  0  0
 17 24  1  0  0  0  0
 19 16  1  0  0  0  0
 19 18  2  0  0  0  0
 20 19  1  0  0  0  0
 21 20  2  0  0  0  0
 21 22  1  0  0  0  0
 22 17  2  0  0  0  0
 24 23  1  0  0  0  0
 25 22  1  0  0  0  0
 26 25  1  0  0  0  0
M  END
>  <MODEL>
2

>  <REMARK>
 VINA RESULT:    -7.543      3.758     10.119
 INTER + INTRA:         -11.049
 INTER:                 -10.498
 INTRA:                  -0.551
 UNBOUND:                -0.640
  Name = CHEMBL80199
  8 active torsions:
  status: ('A' for Active; 'I' for Inactive)
    1  A    between atoms: C_1  and  O_2
    2  A    between atoms: O_2  and  C_3
    3  A    between atoms: C_5  and  C_6
    4  A    between atoms: C_6  and  N_7
    5  A    between atoms: C_8  and  C_10
    6  A    between atoms: C_11  and  C_12
    7  A    between atoms: C_15  and  N_16
    8  A    between atoms: C_23  and  O_24
                            x       y       z     vdW  Elec       q    Type
                         _______ _______ _______ _____ _____    ______ ____

>  <TORSDO>
F 7

>  <SCORE>
-7.543

>  <RMSD_LB>
3.758

>  <RMSD_UB>
10.119

$$$$
CHEMBL80199
 OpenBabel10172500513D

 26 27  0  0  0  0  0  0  0  0999 V2000
  144.3260  140.5180  150.8470 N   0  0  0  0  0  0  0  0  0  0  0  0
  143.7120  139.3020  151.0170 C   0  0  0  0  0  0  0  0  0  0  0  0
  144.0220  138.2790  150.4200 O   0  0  0  0  0  0  0  0  0  0  0  0
  143.9960  141.2930  151.3550 H   0  0  0  0  0  0  0  0  0  0  0  0
  142.6030  139.3450  152.0040 C   0  0  0  0  0  3  0  0  0  0  0  0
  142.1240  138.2060  152.5300 C   0  0  0  0  0  3  0  0  0  0  0  0
  141.0080  138.1350  153.4890 C   0  0  0  0  0  0  0  0  0  0  0  0
  141.2200  138.1450  154.8760 C   0  0  0  0  0  3  0  0  0  0  0  0
  140.1430  138.1140  155.7680 C   0  0  0  0  0  3  0  0  0  0  0  0
  138.8370  138.0870  155.2720 C   0  0  0  0  0  0  0  0  0  0  0  0
  138.6030  138.0990  153.8910 C   0  0  0  0  0  3  0  0  0  0  0  0
  139.6920  138.1260  153.0090 C   0  0  0  0  0  3  0  0  0  0  0  0
  137.7070  138.0530  156.2080 N   0  0  0  0  0  0  0  0  0  0  0  0
  137.9630  138.0350  157.4190 O   0  0  0  0  0  0  0  0  0  0  0  0
  136.5630  138.0420  155.7280 O   0  0  0  0  0  0  0  0  0  0  0  0
  145.4430  140.6970  149.9420 C   0  0  0  0  0  2  0  0  0  0  0  0
  148.3380  140.7730  152.4470 C   0  0  0  0  0  0  0  0  0  0  0  0
  147.1880  140.3780  151.7560 C   0  0  0  0  0  3  0  0  0  0  0  0
  146.7160  141.1050  150.6460 C   0  0  0  0  0  0  0  0  0  0  0  0
  147.4160  142.2530  150.2460 C   0  0  0  0  0  3  0  0  0  0  0  0
  148.5620  142.6610  150.9320 C   0  0  0  0  0  3  0  0  0  0  0  0
  149.0170  141.9220  152.0240 C   0  0  0  0  0  0  0  0  0  0  0  0
  147.9750  139.3260  154.3060 C   0  0  0  0  0  1  0  0  0  0  0  0
  148.8630  140.1220  153.5330 O   0  0  0  0  0  0  0  0  0  0  0  0
  150.1390  142.3260  152.6990 O   0  0  0  0  0  0  0  0  0  0  0  0
  150.9600  141.9030  152.5390 H   0  0  0  0  0  0  0  0  0  0  0  0
  1  2  1  0  0  0  0
  1  4  1  0  0  0  0
  2  5  1  0  0  0  0
  3  2  2  0  0  0  0
  5  6  2  0  0  0  0
  6  7  1  0  0  0  0
  7  8  1  0  0  0  0
  8  9  2  0  0  0  0
 10  9  1  0  0  0  0
 10 13  1  0  0  0  0
 11 10  2  0  0  0  0
 12  7  2  0  0  0  0
 12 11  1  0  0  0  0
 13 14  2  0  0  0  0
 15 13  2  0  0  0  0
 16 19  1  0  0  0  0
 16  1  1  0  0  0  0
 17 24  1  0  0  0  0
 18 17  2  0  0  0  0
 19 18  1  0  0  0  0
 20 19  2  0  0  0  0
 20 21  1  0  0  0  0
 21 22  2  0  0  0  0
 22 17  1  0  0  0  0
 22 25  1  0  0  0  0
 24 23  1  0  0  0  0
 26 25  1  0  0  0  0
M  END
>  <MODEL>
3

>  <REMARK>
 VINA RESULT:    -7.395      1.823      2.096
 INTER + INTRA:         -10.844
 INTER:                 -10.287
 INTRA:                  -0.558
 UNBOUND:                -0.640
  Name = CHEMBL80199
  8 active torsions:
  status: ('A' for Active; 'I' for Inactive)
    1  A    between atoms: C_1  and  O_2
    2  A    between atoms: O_2  and  C_3
    3  A    between atoms: C_5  and  C_6
    4  A    between atoms: C_6  and  N_7
    5  A    between atoms: C_8  and  C_10
    6  A    between atoms: C_11  and  C_12
    7  A    between atoms: C_15  and  N_16
    8  A    between atoms: C_23  and  O_24
                            x       y       z     vdW  Elec       q    Type
                         _______ _______ _______ _____ _____    ______ ____

>  <TORSDO>
F 7

>  <SCORE>
-7.395

>  <RMSD_LB>
1.823

>  <RMSD_UB>
2.096

$$$$
CHEMBL80199
 OpenBabel10172500513D

 26 27  0  0  0  0  0  0  0  0999 V2000
  144.3800  137.2550  151.4720 N   0  0  0  0  0  0  0  0  0  0  0  0
  143.2770  137.2760  150.6550 C   0  0  0  0  0  0  0  0  0  0  0  0
  143.3200  137.3530  149.4340 O   0  0  0  0  0  0  0  0  0  0  0  0
  144.2490  137.2120  152.4460 H   0  0  0  0  0  0  0  0  0  0  0  0
  141.9970  137.2090  151.4050 C   0  0  0  0  0  3  0  0  0  0  0  0
  141.8270  137.9450  152.5150 C   0  0  0  0  0  3  0  0  0  0  0  0
  140.6120  137.9280  153.3480 C   0  0  0  0  0  0  0  0  0  0  0  0
  140.6650  138.0970  154.7400 C   0  0  0  0  0  3  0  0  0  0  0  0
  139.4950  138.1150  155.5070 C   0  0  0  0  0  3  0  0  0  0  0  0
  138.2560  137.9750  154.8780 C   0  0  0  0  0  0  0  0  0  0  0  0
  138.1790  137.8280  153.4870 C   0  0  0  0  0  3  0  0  0  0  0  0
  139.3600  137.8080  152.7310 C   0  0  0  0  0  3  0  0  0  0  0  0
  137.0280  137.9920  155.6830 N   0  0  0  0  0  0  0  0  0  0  0  0
  137.0730  138.5460  156.7890 O   0  0  0  0  0  0  0  0  0  0  0  0
  136.0200  137.4470  155.2070 O   0  0  0  0  0  0  0  0  0  0  0  0
  145.7290  137.2950  150.9460 C   0  0  0  0  0  2  0  0  0  0  0  0
  147.4220  140.3700  152.4760 C   0  0  0  0  0  0  0  0  0  0  0  0
  146.5370  139.5580  151.7590 C   0  0  0  0  0  3  0  0  0  0  0  0
  146.6600  138.1560  151.7690 C   0  0  0  0  0  0  0  0  0  0  0  0
  147.7040  137.5760  152.5050 C   0  0  0  0  0  3  0  0  0  0  0  0
  148.5980  138.3760  153.2190 C   0  0  0  0  0  3  0  0  0  0  0  0
  148.4540  139.7620  153.2030 C   0  0  0  0  0  0  0  0  0  0  0  0
  146.1030  142.3480  152.3230 C   0  0  0  0  0  1  0  0  0  0  0  0
  147.3710  141.7390  152.5210 O   0  0  0  0  0  0  0  0  0  0  0  0
  149.3350  140.5470  153.9010 O   0  0  0  0  0  0  0  0  0  0  0  0
  149.0230  141.1090  154.5830 H   0  0  0  0  0  0  0  0  0  0  0  0
  1  4  1  0  0  0  0
  2  5  1  0  0  0  0
  2  1  1  0  0  0  0
  3  2  2  0  0  0  0
  5  6  2  0  0  0  0
  6  7  1  0  0  0  0
  7  8  1  0  0  0  0
  8  9  2  0  0  0  0
 10  9  1  0  0  0  0
 10 13  1  0  0  0  0
 11 10  2  0  0  0  0
 12  7  2  0  0  0  0
 12 11  1  0  0  0  0
 13 14  2  0  0  0  0
 15 13  2  0  0  0  0
 16  1  1  0  0  0  0
 16 19  1  0  0  0  0
 17 24  1  0  0  0  0
 17 22  1  0  0  0  0
 18 19  1  0  0  0  0
 18 17  2  0  0  0  0
 19 20  2  0  0  0  0
 20 21  1  0  0  0  0
 22 21  2  0  0  0  0
 22 25  1  0  0  0  0
 23 24  1  0  0  0  0
 25 26  1  0  0  0  0
M  END
>  <MODEL>
4

>  <REMARK>
 VINA RESULT:    -7.358      1.867      2.620
 INTER + INTRA:         -10.794
 INTER:                 -10.214
 INTRA:                  -0.580
 UNBOUND:                -0.640
  Name = CHEMBL80199
  8 active torsions:
  status: ('A' for Active; 'I' for Inactive)
    1  A    between atoms: C_1  and  O_2
    2  A    between atoms: O_2  and  C_3
    3  A    between atoms: C_5  and  C_6
    4  A    between atoms: C_6  and  N_7
    5  A    between atoms: C_8  and  C_10
    6  A    between atoms: C_11  and  C_12
    7  A    between atoms: C_15  and  N_16
    8  A    between atoms: C_23  and  O_24
                            x       y       z     vdW  Elec       q    Type
                         _______ _______ _______ _____ _____    ______ ____

>  <TORSDO>
F 7

>  <SCORE>
-7.358

>  <RMSD_LB>
1.867

>  <RMSD_UB>
2.620

$$$$
CHEMBL80199
 OpenBabel10172500513D

 26 27  0  0  0  0  0  0  0  0999 V2000
  142.8910  139.6730  151.7040 N   0  0  0  0  0  0  0  0  0  0  0  0
  142.4630  138.4640  151.2160 C   0  0  0  0  0  0  0  0  0  0  0  0
  142.9210  137.9150  150.2220 O   0  0  0  0  0  0  0  0  0  0  0  0
  142.4490  140.0490  152.4990 H   0  0  0  0  0  0  0  0  0  0  0  0
  141.3560  137.8750  152.0130 C   0  0  0  0  0  3  0  0  0  0  0  0
  140.0980  138.3120  151.8460 C   0  0  0  0  0  3  0  0  0  0  0  0
  138.9360  137.8200  152.6060 C   0  0  0  0  0  0  0  0  0  0  0  0
  137.8590  137.1750  151.9800 C   0  0  0  0  0  3  0  0  0  0  0  0
  136.7830  136.6820  152.7270 C   0  0  0  0  0  3  0  0  0  0  0  0
  136.7870  136.8220  154.1170 C   0  0  0  0  0  0  0  0  0  0  0  0
  137.8630  137.4430  154.7640 C   0  0  0  0  0  3  0  0  0  0  0  0
  138.9320  137.9350  154.0030 C   0  0  0  0  0  3  0  0  0  0  0  0
  135.6580  136.3060  154.9000 N   0  0  0  0  0  0  0  0  0  0  0  0
  135.9100  135.7620  155.9830 O   0  0  0  0  0  0  0  0  0  0  0  0
  134.5190  136.4450  154.4280 O   0  0  0  0  0  0  0  0  0  0  0  0
  143.9720  140.4130  151.0870 C   0  0  0  0  0  2  0  0  0  0  0  0
  146.4620  140.1960  153.9880 C   0  0  0  0  0  0  0  0  0  0  0  0
  145.4760  139.8610  153.0540 C   0  0  0  0  0  3  0  0  0  0  0  0
  145.0750  140.7700  152.0560 C   0  0  0  0  0  0  0  0  0  0  0  0
  145.6760  142.0370  152.0180 C   0  0  0  0  0  3  0  0  0  0  0  0
  146.6560  142.3860  152.9500 C   0  0  0  0  0  3  0  0  0  0  0  0
  147.0440  141.4680  153.9250 C   0  0  0  0  0  0  0  0  0  0  0  0
  147.7480  138.2890  154.6090 C   0  0  0  0  0  1  0  0  0  0  0  0
  146.9090  139.3720  154.9870 O   0  0  0  0  0  0  0  0  0  0  0  0
  148.0030  141.8130  154.8410 O   0  0  0  0  0  0  0  0  0  0  0  0
  148.0840  142.7030  155.1220 H   0  0  0  0  0  0  0  0  0  0  0  0
  1  4  1  0  0  0  0
  2  1  1  0  0  0  0
  2  5  1  0  0  0  0
  3  2  2  0  0  0  0
  6  5  2  0  0  0  0
  6  7  1  0  0  0  0
  7 12  1  0  0  0  0
  8  7  2  0  0  0  0
  8  9  1  0  0  0  0
  9 10  2  0  0  0  0
 10 11  1  0  0  0  0
 10 13  1  0  0  0  0
 12 11  2  0  0  0  0
 13 14  2  0  0  0  0
 15 13  2  0  0  0  0
 16  1  1  0  0  0  0
 16 19  1  0  0  0  0
 17 24  1  0  0  0  0
 18 17  2  0  0  0  0
 19 18  1  0  0  0  0
 20 19  2  0  0  0  0
 20 21  1  0  0  0  0
 21 22  2  0  0  0  0
 22 17  1  0  0  0  0
 22 25  1  0  0  0  0
 23 24  1  0  0  0  0
 25 26  1  0  0  0  0
M  END
>  <MODEL>
5

>  <REMARK>
 VINA RESULT:    -7.326      1.594      2.140
 INTER + INTRA:         -10.749
 INTER:                 -10.202
 INTRA:                  -0.547
 UNBOUND:                -0.640
  Name = CHEMBL80199
  8 active torsions:
  status: ('A' for Active; 'I' for Inactive)
    1  A    between atoms: C_1  and  O_2
    2  A    between atoms: O_2  and  C_3
    3  A    between atoms: C_5  and  C_6
    4  A    between atoms: C_6  and  N_7
    5  A    between atoms: C_8  and  C_10
    6  A    between atoms: C_11  and  C_12
    7  A    between atoms: C_15  and  N_16
    8  A    between atoms: C_23  and  O_24
                            x       y       z     vdW  Elec       q    Type
                         _______ _______ _______ _____ _____    ______ ____

>  <TORSDO>
F 7

>  <SCORE>
-7.326

>  <RMSD_LB>
1.594

>  <RMSD_UB>
2.140

$$$$
CHEMBL80199
 OpenBabel10172500513D

 26 27  0  0  0  0  0  0  0  0999 V2000
  138.2740  137.3610  156.0590 N   0  0  0  0  0  0  0  0  0  0  0  0
  138.0610  138.2980  155.0780 C   0  0  0  0  0  0  0  0  0  0  0  0
  137.2450  139.2070  155.1520 O   0  0  0  0  0  0  0  0  0  0  0  0
  138.9380  136.6520  155.9040 H   0  0  0  0  0  0  0  0  0  0  0  0
  138.9230  138.0950  153.8850 C   0  0  0  0  0  3  0  0  0  0  0  0
  140.2460  137.9210  154.0300 C   0  0  0  0  0  3  0  0  0  0  0  0
  141.1910  137.7440  152.9150 C   0  0  0  0  0  0  0  0  0  0  0  0
  140.7580  137.4270  151.6180 C   0  0  0  0  0  3  0  0  0  0  0  0
  141.6710  137.3000  150.5660 C   0  0  0  0  0  3  0  0  0  0  0  0
  143.0320  137.5060  150.8050 C   0  0  0  0  0  0  0  0  0  0  0  0
  143.4830  137.8460  152.0870 C   0  0  0  0  0  3  0  0  0  0  0  0
  142.5580  137.9660  153.1330 C   0  0  0  0  0  3  0  0  0  0  0  0
  143.9900  137.3730  149.7000 N   0  0  0  0  0  0  0  0  0  0  0  0
  143.5450  137.0720  148.5850 O   0  0  0  0  0  0  0  0  0  0  0  0
  145.1890  137.5660  149.9530 O   0  0  0  0  0  0  0  0  0  0  0  0
  137.5510  137.3830  157.3130 C   0  0  0  0  0  2  0  0  0  0  0  0
  134.7830  134.9720  156.2250 C   0  0  0  0  0  0  0  0  0  0  0  0
  135.8520  135.8730  156.1870 C   0  0  0  0  0  3  0  0  0  0  0  0
  136.4320  136.3690  157.3700 C   0  0  0  0  0  0  0  0  0  0  0  0
  135.9090  135.9520  158.6030 C   0  0  0  0  0  3  0  0  0  0  0  0
  134.8370  135.0580  158.6540 C   0  0  0  0  0  3  0  0  0  0  0  0
  134.2820  134.5730  157.4700 C   0  0  0  0  0  0  0  0  0  0  0  0
  133.9300  135.3150  154.0260 C   0  0  0  0  0  1  0  0  0  0  0  0
  134.1640  134.4410  155.1220 O   0  0  0  0  0  0  0  0  0  0  0  0
  133.2280  133.6980  157.5210 O   0  0  0  0  0  0  0  0  0  0  0  0
  133.3350  132.8590  157.9220 H   0  0  0  0  0  0  0  0  0  0  0  0
  1 16  1  0  0  0  0
  2  3  2  0  0  0  0
  2  1  1  0  0  0  0
  4  1  1  0  0  0  0
  5  6  2  0  0  0  0
  5  2  1  0  0  0  0
  7 12  1  0  0  0  0
  7  6  1  0  0  0  0
  8  7  2  0  0  0  0
  9 10  2  0  0  0  0
  9  8  1  0  0  0  0
 10 11  1  0  0  0  0
 11 12  2  0  0  0  0
 13 15  2  0  0  0  0
 13 10  1  0  0  0  0
 14 13  2  0  0  0  0
 16 19  1  0  0  0  0
 17 22  1  0  0  0  0
 18 17  2  0  0  0  0
 18 19  1  0  0  0  0
 19 20  2  0  0  0  0
 20 21  1  0  0  0  0
 22 25  1  0  0  0  0
 22 21  2  0  0  0  0
 23 24  1  0  0  0  0
 24 17  1  0  0  0  0
 25 26  1  0  0  0  0
M  END
>  <MODEL>
6

>  <REMARK>
 VINA RESULT:    -7.304      3.520     10.277
 INTER + INTRA:         -10.719
 INTER:                 -10.184
 INTRA:                  -0.535
 UNBOUND:                -0.640
  Name = CHEMBL80199
  8 active torsions:
  status: ('A' for Active; 'I' for Inactive)
    1  A    between atoms: C_1  and  O_2
    2  A    between atoms: O_2  and  C_3
    3  A    between atoms: C_5  and  C_6
    4  A    between atoms: C_6  and  N_7
    5  A    between atoms: C_8  and  C_10
    6  A    between atoms: C_11  and  C_12
    7  A    between atoms: C_15  and  N_16
    8  A    between atoms: C_23  and  O_24
                            x       y       z     vdW  Elec       q    Type
                         _______ _______ _______ _____ _____    ______ ____

>  <TORSDO>
F 7

>  <SCORE>
-7.304

>  <RMSD_LB>
3.520

>  <RMSD_UB>
10.277

$$$$
CHEMBL80199
 OpenBabel10172500513D

 26 27  0  0  0  0  0  0  0  0999 V2000
  143.4820  139.5590  153.9100 N   0  0  0  0  0  0  0  0  0  0  0  0
  142.7520  139.6100  155.0720 C   0  0  0  0  0  0  0  0  0  0  0  0
  143.1900  139.9890  156.1500 O   0  0  0  0  0  0  0  0  0  0  0  0
  143.0520  139.2200  153.0920 H   0  0  0  0  0  0  0  0  0  0  0  0
  141.3540  139.1380  154.9000 C   0  0  0  0  0  3  0  0  0  0  0  0
  140.8900  138.1210  155.6440 C   0  0  0  0  0  3  0  0  0  0  0  0
  139.5340  137.5570  155.5310 C   0  0  0  0  0  0  0  0  0  0  0  0
  138.9610  136.7910  156.5580 C   0  0  0  0  0  3  0  0  0  0  0  0
  137.6570  136.2960  156.4440 C   0  0  0  0  0  3  0  0  0  0  0  0
  136.9100  136.5790  155.2980 C   0  0  0  0  0  0  0  0  0  0  0  0
  137.4560  137.3600  154.2710 C   0  0  0  0  0  3  0  0  0  0  0  0
  138.7640  137.8460  154.3970 C   0  0  0  0  0  3  0  0  0  0  0  0
  135.5430  136.0580  155.1780 N   0  0  0  0  0  0  0  0  0  0  0  0
  135.2170  135.1190  155.9160 O   0  0  0  0  0  0  0  0  0  0  0  0
  134.7970  136.5890  154.3410 O   0  0  0  0  0  0  0  0  0  0  0  0
  144.8640  139.9880  153.8500 C   0  0  0  0  0  2  0  0  0  0  0  0
  145.2180  140.6710  150.0980 C   0  0  0  0  0  0  0  0  0  0  0  0
  144.8530  140.0830  151.3150 C   0  0  0  0  0  3  0  0  0  0  0  0
  145.2190  140.6630  152.5450 C   0  0  0  0  0  0  0  0  0  0  0  0
  145.9740  141.8440  152.5350 C   0  0  0  0  0  3  0  0  0  0  0  0
  146.3490  142.4370  151.3270 C   0  0  0  0  0  3  0  0  0  0  0  0
  145.9700  141.8510  150.1200 C   0  0  0  0  0  0  0  0  0  0  0  0
  143.5430  139.8280  148.6270 C   0  0  0  0  0  1  0  0  0  0  0  0
  144.9020  140.1730  148.8610 O   0  0  0  0  0  0  0  0  0  0  0  0
  146.3430  142.4310  148.9350 O   0  0  0  0  0  0  0  0  0  0  0  0
  147.2460  142.4480  148.6850 H   0  0  0  0  0  0  0  0  0  0  0  0
  1  2  1  0  0  0  0
  2  3  2  0  0  0  0
  4  1  1  0  0  0  0
  5  2  1  0  0  0  0
  5  6  2  0  0  0  0
  7  6  1  0  0  0  0
  7  8  1  0  0  0  0
  9  8  2  0  0  0  0
 10  9  1  0  0  0  0
 11 12  1  0  0  0  0
 11 10  2  0  0  0  0
 12  7  2  0  0  0  0
 13 10  1  0  0  0  0
 13 14  2  0  0  0  0
 15 13  2  0  0  0  0
 16  1  1  0  0  0  0
 17 22  2  0  0  0  0
 17 18  1  0  0  0  0
 18 19  2  0  0  0  0
 19 16  1  0  0  0  0
 20 19  1  0  0  0  0
 21 20  2  0  0  0  0
 22 21  1  0  0  0  0
 23 24  1  0  0  0  0
 24 17  1  0  0  0  0
 25 22  1  0  0  0  0
 26 25  1  0  0  0  0
M  END
>  <MODEL>
7

>  <REMARK>
 VINA RESULT:    -7.268      2.488      3.585
 INTER + INTRA:         -10.670
 INTER:                 -10.187
 INTRA:                  -0.483
 UNBOUND:                -0.640
  Name = CHEMBL80199
  8 active torsions:
  status: ('A' for Active; 'I' for Inactive)
    1  A    between atoms: C_1  and  O_2
    2  A    between atoms: O_2  and  C_3
    3  A    between atoms: C_5  and  C_6
    4  A    between atoms: C_6  and  N_7
    5  A    between atoms: C_8  and  C_10
    6  A    between atoms: C_11  and  C_12
    7  A    between atoms: C_15  and  N_16
    8  A    between atoms: C_23  and  O_24
                            x       y       z     vdW  Elec       q    Type
                         _______ _______ _______ _____ _____    ______ ____

>  <TORSDO>
F 7

>  <SCORE>
-7.268

>  <RMSD_LB>
2.488

>  <RMSD_UB>
3.585

$$$$
CHEMBL80199
 OpenBabel10172500513D

 26 27  0  0  0  0  0  0  0  0999 V2000
  135.0690  134.7290  152.7220 N   0  0  0  0  0  0  0  0  0  0  0  0
  134.9490  135.4480  153.8860 C   0  0  0  0  0  0  0  0  0  0  0  0
  133.9120  135.5630  154.5260 O   0  0  0  0  0  0  0  0  0  0  0  0
  135.9400  134.7090  152.2630 H   0  0  0  0  0  0  0  0  0  0  0  0
  136.2180  136.1010  154.2990 C   0  0  0  0  0  3  0  0  0  0  0  0
  136.9170  136.8340  153.4180 C   0  0  0  0  0  3  0  0  0  0  0  0
  138.1990  137.4950  153.7150 C   0  0  0  0  0  0  0  0  0  0  0  0
  138.6000  137.7800  155.0290 C   0  0  0  0  0  3  0  0  0  0  0  0
  139.8390  138.3750  155.2900 C   0  0  0  0  0  3  0  0  0  0  0  0
  140.6960  138.6780  154.2290 C   0  0  0  0  0  0  0  0  0  0  0  0
  140.3250  138.3810  152.9110 C   0  0  0  0  0  3  0  0  0  0  0  0
  139.0790  137.7890  152.6640 C   0  0  0  0  0  3  0  0  0  0  0  0
  141.9960  139.3030  154.5030 N   0  0  0  0  0  0  0  0  0  0  0  0
  142.8350  139.3090  153.5920 O   0  0  0  0  0  0  0  0  0  0  0  0
  142.1760  139.7850  155.6320 O   0  0  0  0  0  0  0  0  0  0  0  0
  133.9570  134.0010  152.1490 C   0  0  0  0  0  2  0  0  0  0  0  0
  134.6840  135.1240  148.5620 C   0  0  0  0  0  0  0  0  0  0  0  0
  134.7840  134.9470  149.9460 C   0  0  0  0  0  3  0  0  0  0  0  0
  133.8680  134.1400  150.6470 C   0  0  0  0  0  0  0  0  0  0  0  0
  132.8330  133.5190  149.9330 C   0  0  0  0  0  3  0  0  0  0  0  0
  132.7180  133.6940  148.5520 C   0  0  0  0  0  3  0  0  0  0  0  0
  133.6410  134.4910  147.8750 C   0  0  0  0  0  0  0  0  0  0  0  0
  135.4190  137.3010  147.9270 C   0  0  0  0  0  1  0  0  0  0  0  0
  135.5330  135.8900  147.8050 O   0  0  0  0  0  0  0  0  0  0  0  0
  133.5250  134.6650  146.5210 O   0  0  0  0  0  0  0  0  0  0  0  0
  134.0080  135.3440  146.0930 H   0  0  0  0  0  0  0  0  0  0  0  0
  1  2  1  0  0  0  0
  2  5  1  0  0  0  0
  2  3  2  0  0  0  0
  4  1  1  0  0  0  0
  6  7  1  0  0  0  0
  6  5  2  0  0  0  0
  7  8  1  0  0  0  0
  8  9  2  0  0  0  0
 10 13  1  0  0  0  0
 10  9  1  0  0  0  0
 11 10  2  0  0  0  0
 12 11  1  0  0  0  0
 12  7  2  0  0  0  0
 13 15  2  0  0  0  0
 14 13  2  0  0  0  0
 16  1  1  0  0  0  0
 17 18  1  0  0  0  0
 18 19  2  0  0  0  0
 19 16  1  0  0  0  0
 20 19  1  0  0  0  0
 21 20  2  0  0  0  0
 22 21  1  0  0  0  0
 22 17  2  0  0  0  0
 24 23  1  0  0  0  0
 24 17  1  0  0  0  0
 25 22  1  0  0  0  0
 26 25  1  0  0  0  0
M  END
>  <MODEL>
8

>  <REMARK>
 VINA RESULT:    -7.056      5.920     10.613
 INTER + INTRA:         -10.376
 INTER:                  -9.710
 INTRA:                  -0.666
 UNBOUND:                -0.640
  Name = CHEMBL80199
  8 active torsions:
  status: ('A' for Active; 'I' for Inactive)
    1  A    between atoms: C_1  and  O_2
    2  A    between atoms: O_2  and  C_3
    3  A    between atoms: C_5  and  C_6
    4  A    between atoms: C_6  and  N_7
    5  A    between atoms: C_8  and  C_10
    6  A    between atoms: C_11  and  C_12
    7  A    between atoms: C_15  and  N_16
    8  A    between atoms: C_23  and  O_24
                            x       y       z     vdW  Elec       q    Type
                         _______ _______ _______ _____ _____    ______ ____

>  <TORSDO>
F 7

>  <SCORE>
-7.056

>  <RMSD_LB>
5.920

>  <RMSD_UB>
10.613

$$$$
CHEMBL80199
 OpenBabel10172500513D

 26 27  0  0  0  0  0  0  0  0999 V2000
  137.8630  137.0510  150.6410 N   0  0  0  0  0  0  0  0  0  0  0  0
  138.3640  138.3030  150.3830 C   0  0  0  0  0  0  0  0  0  0  0  0
  137.7830  139.1610  149.7310 O   0  0  0  0  0  0  0  0  0  0  0  0
  138.4100  136.4170  151.1580 H   0  0  0  0  0  0  0  0  0  0  0  0
  139.7120  138.5210  150.9670 C   0  0  0  0  0  3  0  0  0  0  0  0
  140.2810  137.5700  151.7240 C   0  0  0  0  0  3  0  0  0  0  0  0
  141.5960  137.6980  152.3750 C   0  0  0  0  0  0  0  0  0  0  0  0
  141.7350  138.2150  153.6720 C   0  0  0  0  0  3  0  0  0  0  0  0
  142.9900  138.2940  154.2840 C   0  0  0  0  0  3  0  0  0  0  0  0
  144.1200  137.8380  153.6010 C   0  0  0  0  0  0  0  0  0  0  0  0
  144.0010  137.2970  152.3140 C   0  0  0  0  0  3  0  0  0  0  0  0
  142.7380  137.2280  151.7110 C   0  0  0  0  0  3  0  0  0  0  0  0
  145.4380  137.9210  154.2430 N   0  0  0  0  0  0  0  0  0  0  0  0
  145.7000  138.9440  154.8890 O   0  0  0  0  0  0  0  0  0  0  0  0
  146.2110  136.9610  154.0970 O   0  0  0  0  0  0  0  0  0  0  0  0
  136.5560  136.6340  150.1780 C   0  0  0  0  0  2  0  0  0  0  0  0
  135.4430  135.0580  153.4850 C   0  0  0  0  0  0  0  0  0  0  0  0
  136.0780  135.8860  152.5550 C   0  0  0  0  0  3  0  0  0  0  0  0
  135.8230  135.7670  151.1750 C   0  0  0  0  0  0  0  0  0  0  0  0
  134.9210  134.7850  150.7400 C   0  0  0  0  0  3  0  0  0  0  0  0
  134.2860  133.9470  151.6590 C   0  0  0  0  0  3  0  0  0  0  0  0
  134.5470  134.0870  153.0210 C   0  0  0  0  0  0  0  0  0  0  0  0
  136.6710  135.9550  155.3200 C   0  0  0  0  0  1  0  0  0  0  0  0
  135.6340  135.1090  154.8420 O   0  0  0  0  0  0  0  0  0  0  0  0
  133.9260  133.2610  153.9210 O   0  0  0  0  0  0  0  0  0  0  0  0
  133.6060  133.6070  154.7310 H   0  0  0  0  0  0  0  0  0  0  0  0
  1  4  1  0  0  0  0
  2  1  1  0  0  0  0
  2  5  1  0  0  0  0
  3  2  2  0  0  0  0
  5  6  2  0  0  0  0
  6  7  1  0  0  0  0
  7  8  1  0  0  0  0
  8  9  2  0  0  0  0
 10 13  1  0  0  0  0
 10  9  1  0  0  0  0
 11 10  2  0  0  0  0
 12 11  1  0  0  0  0
 12  7  2  0  0  0  0
 13 14  2  0  0  0  0
 15 13  2  0  0  0  0
 16  1  1  0  0  0  0
 16 19  1  0  0  0  0
 17 24  1  0  0  0  0
 18 17  2  0  0  0  0
 19 18  1  0  0  0  0
 20 19  2  0  0  0  0
 20 21  1  0  0  0  0
 21 22  2  0  0  0  0
 22 17  1  0  0  0  0
 22 25  1  0  0  0  0
 24 23  1  0  0  0  0
 25 26  1  0  0  0  0
M  END
>  <MODEL>
9

>  <REMARK>
 VINA RESULT:    -6.972      3.993      9.488
 INTER + INTRA:         -10.261
 INTER:                  -9.622
 INTRA:                  -0.640
 UNBOUND:                -0.640
  Name = CHEMBL80199
  8 active torsions:
  status: ('A' for Active; 'I' for Inactive)
    1  A    between atoms: C_1  and  O_2
    2  A    between atoms: O_2  and  C_3
    3  A    between atoms: C_5  and  C_6
    4  A    between atoms: C_6  and  N_7
    5  A    between atoms: C_8  and  C_10
    6  A    between atoms: C_11  and  C_12
    7  A    between atoms: C_15  and  N_16
    8  A    between atoms: C_23  and  O_24
                            x       y       z     vdW  Elec       q    Type
                         _______ _______ _______ _____ _____    ______ ____

>  <TORSDO>
F 7

>  <SCORE>
-6.972

>  <RMSD_LB>
3.993

>  <RMSD_UB>
9.488

$$$$
