CHEMBL2057846
 OpenBabel10172500553D

 27 28  0  0  1  0  0  0  0  0999 V2000
  141.9180  139.4560  149.7100 C   0  0  0  0  0  0  0  0  0  0  0  0
  140.8300  140.0240  149.7140 O   0  0  0  0  0  0  0  0  0  0  0  0
  142.9510  139.9940  148.9970 N   0  0  0  0  0  0  0  0  0  0  0  0
  142.7910  140.8490  148.5360 H   0  0  0  0  0  0  0  0  0  0  0  0
  142.2020  138.1590  150.4870 C   0  0  2  0  0  3  0  0  0  0  0  0
  141.2940  137.0440  149.9830 C   0  0  0  0  0  1  0  0  0  0  0  0
  143.0680  139.0850  154.1260 C   0  0  0  0  0  0  0  0  0  0  0  0
  143.1690  138.9050  152.7370 C   0  0  0  0  0  3  0  0  0  0  0  0
  142.1280  138.3150  152.0020 C   0  0  0  0  0  0  0  0  0  0  0  0
  140.9770  137.8930  152.6890 C   0  0  0  0  0  3  0  0  0  0  0  0
  140.8630  138.0660  154.0710 C   0  0  0  0  0  3  0  0  0  0  0  0
  141.9010  138.6670  154.7790 C   0  0  0  0  0  0  0  0  0  0  0  0
  145.3390  139.1130  154.8320 C   0  0  0  0  0  1  0  0  0  0  0  0
  144.0310  139.6650  154.9100 O   0  0  0  0  0  0  0  0  0  0  0  0
  141.7820  138.8540  156.1310 O   0  0  0  0  0  0  0  0  0  0  0  0
  140.9340  138.9430  156.5190 H   0  0  0  0  0  0  0  0  0  0  0  0
  144.2630  139.4020  148.8670 C   0  0  0  0  0  2  0  0  0  0  0  0
  145.2730  139.9280  149.8360 C   0  0  0  0  0  0  0  0  0  0  0  0
  145.1860  141.2190  150.3590 C   0  0  0  0  0  3  0  0  0  0  0  0
  146.0770  141.6340  151.3440 C   0  0  0  0  0  3  0  0  0  0  0  0
  147.0600  140.7670  151.8460 C   0  0  0  0  0  0  0  0  0  0  0  0
  147.1020  139.4570  151.3360 C   0  0  0  0  0  3  0  0  0  0  0  0
  146.2220  139.0440  150.3440 C   0  0  0  0  0  3  0  0  0  0  0  0
  148.0610  141.1990  152.9230 C   0  0  0  0  0  0  0  0  0  0  0  0
  147.4140  142.0490  154.0370 C   0  0  0  0  0  1  0  0  0  0  0  0
  148.6880  139.9510  153.5760 C   0  0  0  0  0  1  0  0  0  0  0  0
  149.1750  142.0510  152.2770 C   0  0  0  0  0  1  0  0  0  0  0  0
  1  2  2  0  0  0  0
  1  5  1  0  0  0  0
  3  1  1  0  0  0  0
  4  3  1  0  0  0  0
  5  6  1  6  0  0  0
  5  9  1  0  0  0  0
  7 12  1  0  0  0  0
  7 14  1  0  0  0  0
  8  7  2  0  0  0  0
  9 10  2  0  0  0  0
  9  8  1  0  0  0  0
 10 11  1  0  0  0  0
 11 12  2  0  0  0  0
 12 15  1  0  0  0  0
 13 14  1  0  0  0  0
 15 16  1  0  0  0  0
 17  3  1  0  0  0  0
 17 18  1  0  0  0  0
 18 23  2  0  0  0  0
 18 19  1  0  0  0  0
 19 20  2  0  0  0  0
 20 21  1  0  0  0  0
 21 24  1  0  0  0  0
 22 21  2  0  0  0  0
 23 22  1  0  0  0  0
 24 26  1  0  0  0  0
 24 25  1  0  0  0  0
 27 24  1  0  0  0  0
M  END
>  <MODEL>
1

>  <REMARK>
 VINA RESULT:    -7.789      0.000      0.000
 INTER + INTRA:         -11.883
 INTER:                  -9.959
 INTRA:                  -1.923
 UNBOUND:                -1.134
  Name = CHEMBL2057846
  12 active torsions:
  status: ('A' for Active; 'I' for Inactive)
    1  A    between atoms: C_1  and  O_2
    2  A    between atoms: O_2  and  C_3
    3  A    between atoms: C_5  and  C_6
    4  A    between atoms: C_6  and  C_7
    5  A    between atoms: C_6  and  C_8
    6  A    between atoms: N_10  and  C_11
    7  A    between atoms: C_11  and  C_12
    8  A    between atoms: C_15  and  C_16
    9  A    between atoms: C_16  and  C_17
   10  A    between atoms: C_16  and  C_18
   11  A    between atoms: C_16  and  C_19
   12  A    between atoms: C_24  and  O_25
                            x       y       z     vdW  Elec       q    Type
                         _______ _______ _______ _____ _____    ______ ____

>  <TORSDO>
F 7

>  <SCORE>
-7.789

>  <RMSD_LB>
0.000

>  <RMSD_UB>
0.000

$$$$
CHEMBL2057846
 OpenBabel10172500553D

 27 28  0  0  1  0  0  0  0  0999 V2000
  134.2730  135.8210  151.8600 C   0  0  0  0  0  0  0  0  0  0  0  0
  133.2210  136.3240  151.4770 O   0  0  0  0  0  0  0  0  0  0  0  0
  134.5340  135.7530  153.1980 N   0  0  0  0  0  0  0  0  0  0  0  0
  133.8420  136.0820  153.8150 H   0  0  0  0  0  0  0  0  0  0  0  0
  135.3300  135.2360  150.9070 C   0  0  2  0  0  3  0  0  0  0  0  0
  136.4040  136.2780  150.6220 C   0  0  0  0  0  1  0  0  0  0  0  0
  134.3900  134.7200  147.2060 C   0  0  0  0  0  0  0  0  0  0  0  0
  134.8870  135.2950  148.3870 C   0  0  0  0  0  3  0  0  0  0  0  0
  134.7520  134.6470  149.6250 C   0  0  0  0  0  0  0  0  0  0  0  0
  134.0920  133.4080  149.6650 C   0  0  0  0  0  3  0  0  0  0  0  0
  133.5920  132.8240  148.4980 C   0  0  0  0  0  3  0  0  0  0  0  0
  133.7500  133.4750  147.2780 C   0  0  0  0  0  0  0  0  0  0  0  0
  133.6680  136.4030  145.6880 C   0  0  0  0  0  1  0  0  0  0  0  0
  134.4970  135.2800  145.9600 O   0  0  0  0  0  0  0  0  0  0  0  0
  133.2780  132.8950  146.1300 O   0  0  0  0  0  0  0  0  0  0  0  0
  132.3730  132.6600  146.0620 H   0  0  0  0  0  0  0  0  0  0  0  0
  135.7520  135.2340  153.7770 C   0  0  0  0  0  2  0  0  0  0  0  0
  135.7790  135.2540  155.2720 C   0  0  0  0  0  0  0  0  0  0  0  0
  136.7830  135.9160  155.9800 C   0  0  0  0  0  3  0  0  0  0  0  0
  136.7110  136.0110  157.3670 C   0  0  0  0  0  3  0  0  0  0  0  0
  135.6300  135.4680  158.0770 C   0  0  0  0  0  0  0  0  0  0  0  0
  134.6080  134.8430  157.3400 C   0  0  0  0  0  3  0  0  0  0  0  0
  134.6820  134.7350  155.9570 C   0  0  0  0  0  3  0  0  0  0  0  0
  135.5290  135.5480  159.6040 C   0  0  0  0  0  0  0  0  0  0  0  0
  136.0110  136.9020  160.1670 C   0  0  0  0  0  1  0  0  0  0  0  0
  134.0630  135.3440  160.0370 C   0  0  0  0  0  1  0  0  0  0  0  0
  136.4060  134.4450  160.2350 C   0  0  0  0  0  1  0  0  0  0  0  0
  1  3  1  0  0  0  0
  2  1  2  0  0  0  0
  3 17  1  0  0  0  0
  3  4  1  0  0  0  0
  5  6  1  6  0  0  0
  5  1  1  0  0  0  0
  7 12  2  0  0  0  0
  7  8  1  0  0  0  0
  8  9  2  0  0  0  0
  9 10  1  0  0  0  0
  9  5  1  0  0  0  0
 11 10  2  0  0  0  0
 12 11  1  0  0  0  0
 13 14  1  0  0  0  0
 14  7  1  0  0  0  0
 15 12  1  0  0  0  0
 16 15  1  0  0  0  0
 17 18  1  0  0  0  0
 18 23  2  0  0  0  0
 18 19  1  0  0  0  0
 19 20  2  0  0  0  0
 20 21  1  0  0  0  0
 21 24  1  0  0  0  0
 22 21  2  0  0  0  0
 23 22  1  0  0  0  0
 24 26  1  0  0  0  0
 24 25  1  0  0  0  0
 24 27  1  0  0  0  0
M  END
>  <MODEL>
2

>  <REMARK>
 VINA RESULT:    -7.770      9.560     12.234
 INTER + INTRA:         -11.857
 INTER:                 -11.189
 INTRA:                  -0.668
 UNBOUND:                -1.134
  Name = CHEMBL2057846
  12 active torsions:
  status: ('A' for Active; 'I' for Inactive)
    1  A    between atoms: C_1  and  O_2
    2  A    between atoms: O_2  and  C_3
    3  A    between atoms: C_5  and  C_6
    4  A    between atoms: C_6  and  C_7
    5  A    between atoms: C_6  and  C_8
    6  A    between atoms: N_10  and  C_11
    7  A    between atoms: C_11  and  C_12
    8  A    between atoms: C_15  and  C_16
    9  A    between atoms: C_16  and  C_17
   10  A    between atoms: C_16  and  C_18
   11  A    between atoms: C_16  and  C_19
   12  A    between atoms: C_24  and  O_25
                            x       y       z     vdW  Elec       q    Type
                         _______ _______ _______ _____ _____    ______ ____

>  <TORSDO>
F 7

>  <SCORE>
-7.770

>  <RMSD_LB>
9.560

>  <RMSD_UB>
12.234

$$$$
CHEMBL2057846
 OpenBabel10172500553D

 27 28  0  0  1  0  0  0  0  0999 V2000
  141.7170  139.4880  149.8890 C   0  0  0  0  0  0  0  0  0  0  0  0
  140.6240  140.0450  149.8960 O   0  0  0  0  0  0  0  0  0  0  0  0
  142.6950  139.9440  149.0530 N   0  0  0  0  0  0  0  0  0  0  0  0
  142.4950  140.7380  148.5070 H   0  0  0  0  0  0  0  0  0  0  0  0
  142.0670  138.2920  150.7920 C   0  0  2  0  0  3  0  0  0  0  0  0
  141.1410  137.1220  150.4840 C   0  0  0  0  0  1  0  0  0  0  0  0
  141.0170  138.6940  154.4780 C   0  0  0  0  0  0  0  0  0  0  0  0
  140.9680  138.4270  153.1000 C   0  0  0  0  0  3  0  0  0  0  0  0
  142.0900  138.6250  152.2790 C   0  0  0  0  0  0  0  0  0  0  0  0
  143.2710  139.1120  152.8640 C   0  0  0  0  0  3  0  0  0  0  0  0
  143.3340  139.3830  154.2340 C   0  0  0  0  0  3  0  0  0  0  0  0
  142.2150  139.1650  155.0320 C   0  0  0  0  0  0  0  0  0  0  0  0
  138.6620  138.6330  154.8070 C   0  0  0  0  0  1  0  0  0  0  0  0
  139.9720  138.5110  155.3460 O   0  0  0  0  0  0  0  0  0  0  0  0
  142.2810  139.4110  156.3790 O   0  0  0  0  0  0  0  0  0  0  0  0
  141.5630  139.1780  156.9330 H   0  0  0  0  0  0  0  0  0  0  0  0
  144.0040  139.3480  148.9090 C   0  0  0  0  0  2  0  0  0  0  0  0
  145.0310  139.8870  149.8530 C   0  0  0  0  0  0  0  0  0  0  0  0
  144.9450  141.1790  150.3740 C   0  0  0  0  0  3  0  0  0  0  0  0
  145.8540  141.6040  151.3380 C   0  0  0  0  0  3  0  0  0  0  0  0
  146.8560  140.7480  151.8200 C   0  0  0  0  0  0  0  0  0  0  0  0
  146.8990  139.4360  151.3130 C   0  0  0  0  0  3  0  0  0  0  0  0
  146.0000  139.0120  150.3410 C   0  0  0  0  0  3  0  0  0  0  0  0
  147.8770  141.1910  152.8720 C   0  0  0  0  0  0  0  0  0  0  0  0
  148.5550  140.0030  153.5880 C   0  0  0  0  0  1  0  0  0  0  0  0
  148.9780  142.0370  152.2020 C   0  0  0  0  0  1  0  0  0  0  0  0
  147.1690  142.0380  153.9510 C   0  0  0  0  0  1  0  0  0  0  0  0
  1  2  2  0  0  0  0
  1  5  1  0  0  0  0
  3  1  1  0  0  0  0
  4  3  1  0  0  0  0
  5  6  1  1  0  0  0
  5  9  1  0  0  0  0
  7 12  1  0  0  0  0
  7 14  1  0  0  0  0
  8  7  2  0  0  0  0
  9 10  2  0  0  0  0
  9  8  1  0  0  0  0
 10 11  1  0  0  0  0
 11 12  2  0  0  0  0
 12 15  1  0  0  0  0
 13 14  1  0  0  0  0
 15 16  1  0  0  0  0
 17  3  1  0  0  0  0
 17 18  1  0  0  0  0
 18 23  2  0  0  0  0
 18 19  1  0  0  0  0
 19 20  2  0  0  0  0
 20 21  1  0  0  0  0
 21 24  1  0  0  0  0
 22 21  2  0  0  0  0
 23 22  1  0  0  0  0
 24 25  1  0  0  0  0
 24 27  1  0  0  0  0
 26 24  1  0  0  0  0
M  END
>  <MODEL>
3

>  <REMARK>
 VINA RESULT:    -7.719      0.732      2.081
 INTER + INTRA:         -11.787
 INTER:                  -9.874
 INTRA:                  -1.913
 UNBOUND:                -1.134
  Name = CHEMBL2057846
  12 active torsions:
  status: ('A' for Active; 'I' for Inactive)
    1  A    between atoms: C_1  and  O_2
    2  A    between atoms: O_2  and  C_3
    3  A    between atoms: C_5  and  C_6
    4  A    between atoms: C_6  and  C_7
    5  A    between atoms: C_6  and  C_8
    6  A    between atoms: N_10  and  C_11
    7  A    between atoms: C_11  and  C_12
    8  A    between atoms: C_15  and  C_16
    9  A    between atoms: C_16  and  C_17
   10  A    between atoms: C_16  and  C_18
   11  A    between atoms: C_16  and  C_19
   12  A    between atoms: C_24  and  O_25
                            x       y       z     vdW  Elec       q    Type
                         _______ _______ _______ _____ _____    ______ ____

>  <TORSDO>
F 7

>  <SCORE>
-7.719

>  <RMSD_LB>
0.732

>  <RMSD_UB>
2.081

$$$$
CHEMBL2057846
 OpenBabel10172500553D

 27 28  0  0  1  0  0  0  0  0999 V2000
  137.6910  137.7970  150.3060 C   0  0  0  0  0  0  0  0  0  0  0  0
  137.2740  138.4460  149.3520 O   0  0  0  0  0  0  0  0  0  0  0  0
  138.2770  138.4470  151.3540 N   0  0  0  0  0  0  0  0  0  0  0  0
  138.3100  139.4300  151.3190 H   0  0  0  0  0  0  0  0  0  0  0  0
  137.5780  136.2650  150.4050 C   0  0  2  0  0  3  0  0  0  0  0  0
  138.1800  135.6200  149.1630 C   0  0  0  0  0  1  0  0  0  0  0  0
  134.4430  134.9370  152.2110 C   0  0  0  0  0  0  0  0  0  0  0  0
  135.7610  135.3510  151.9600 C   0  0  0  0  0  3  0  0  0  0  0  0
  136.1640  135.7650  150.6800 C   0  0  0  0  0  0  0  0  0  0  0  0
  135.2190  135.7450  149.6410 C   0  0  0  0  0  3  0  0  0  0  0  0
  133.9040  135.3340  149.8750 C   0  0  0  0  0  3  0  0  0  0  0  0
  133.5210  134.9420  151.1550 C   0  0  0  0  0  0  0  0  0  0  0  0
  133.8530  135.5350  154.4360 C   0  0  0  0  0  1  0  0  0  0  0  0
  133.9700  134.5350  153.4330 O   0  0  0  0  0  0  0  0  0  0  0  0
  132.2270  134.5580  151.3910 O   0  0  0  0  0  0  0  0  0  0  0  0
  131.6630  135.1020  151.9040 H   0  0  0  0  0  0  0  0  0  0  0  0
  138.8530  137.8000  152.5100 C   0  0  0  0  0  2  0  0  0  0  0  0
  140.3480  137.8100  152.5390 C   0  0  0  0  0  0  0  0  0  0  0  0
  141.0580  138.1360  153.6960 C   0  0  0  0  0  3  0  0  0  0  0  0
  142.4450  138.0220  153.7180 C   0  0  0  0  0  3  0  0  0  0  0  0
  143.1540  137.5610  152.5980 C   0  0  0  0  0  0  0  0  0  0  0  0
  142.4150  137.1970  151.4570 C   0  0  0  0  0  3  0  0  0  0  0  0
  141.0320  137.3210  151.4280 C   0  0  0  0  0  3  0  0  0  0  0  0
  144.6810  137.4350  152.5890 C   0  0  0  0  0  0  0  0  0  0  0  0
  145.2140  136.6920  151.3450 C   0  0  0  0  0  1  0  0  0  0  0  0
  145.3160  138.8400  152.6160 C   0  0  0  0  0  1  0  0  0  0  0  0
  145.1390  136.6440  153.8330 C   0  0  0  0  0  1  0  0  0  0  0  0
  1  5  1  0  0  0  0
  1  3  1  0  0  0  0
  2  1  2  0  0  0  0
  3 17  1  0  0  0  0
  4  3  1  0  0  0  0
  5  6  1  6  0  0  0
  5  9  1  0  0  0  0
  7 14  1  0  0  0  0
  8  7  1  0  0  0  0
  9  8  2  0  0  0  0
 10 11  2  0  0  0  0
 10  9  1  0  0  0  0
 11 12  1  0  0  0  0
 12 15  1  0  0  0  0
 12  7  2  0  0  0  0
 14 13  1  0  0  0  0
 15 16  1  0  0  0  0
 17 18  1  0  0  0  0
 18 19  1  0  0  0  0
 19 20  2  0  0  0  0
 21 20  1  0  0  0  0
 22 21  2  0  0  0  0
 23 22  1  0  0  0  0
 23 18  2  0  0  0  0
 24 21  1  0  0  0  0
 24 26  1  0  0  0  0
 24 27  1  0  0  0  0
 25 24  1  0  0  0  0
M  END
>  <MODEL>
4

>  <REMARK>
 VINA RESULT:    -7.666      5.090      7.206
 INTER + INTRA:         -11.714
 INTER:                 -10.612
 INTRA:                  -1.101
 UNBOUND:                -1.134
  Name = CHEMBL2057846
  12 active torsions:
  status: ('A' for Active; 'I' for Inactive)
    1  A    between atoms: C_1  and  O_2
    2  A    between atoms: O_2  and  C_3
    3  A    between atoms: C_5  and  C_6
    4  A    between atoms: C_6  and  C_7
    5  A    between atoms: C_6  and  C_8
    6  A    between atoms: N_10  and  C_11
    7  A    between atoms: C_11  and  C_12
    8  A    between atoms: C_15  and  C_16
    9  A    between atoms: C_16  and  C_17
   10  A    between atoms: C_16  and  C_18
   11  A    between atoms: C_16  and  C_19
   12  A    between atoms: C_24  and  O_25
                            x       y       z     vdW  Elec       q    Type
                         _______ _______ _______ _____ _____    ______ ____

>  <TORSDO>
F 7

>  <SCORE>
-7.666

>  <RMSD_LB>
5.090

>  <RMSD_UB>
7.206

$$$$
CHEMBL2057846
 OpenBabel10172500553D

 27 28  0  0  1  0  0  0  0  0999 V2000
  137.6630  137.8240  150.2830 C   0  0  0  0  0  0  0  0  0  0  0  0
  137.2590  138.4710  149.3230 O   0  0  0  0  0  0  0  0  0  0  0  0
  138.3080  138.4670  151.3000 N   0  0  0  0  0  0  0  0  0  0  0  0
  138.3930  139.4460  151.2400 H   0  0  0  0  0  0  0  0  0  0  0  0
  137.4710  136.3040  150.4240 C   0  0  2  0  0  3  0  0  0  0  0  0
  138.0900  135.5900  149.2290 C   0  0  0  0  0  1  0  0  0  0  0  0
  133.8830  135.0280  149.8300 C   0  0  0  0  0  0  0  0  0  0  0  0
  135.2000  135.4590  149.5990 C   0  0  0  0  0  3  0  0  0  0  0  0
  136.0240  135.8810  150.6540 C   0  0  0  0  0  0  0  0  0  0  0  0
  135.5000  135.8770  151.9580 C   0  0  0  0  0  3  0  0  0  0  0  0
  134.1910  135.4520  152.2030 C   0  0  0  0  0  3  0  0  0  0  0  0
  133.3950  135.0220  151.1440 C   0  0  0  0  0  0  0  0  0  0  0  0
  133.3070  133.3200  148.2780 C   0  0  0  0  0  1  0  0  0  0  0  0
  133.0240  134.5870  148.8580 O   0  0  0  0  0  0  0  0  0  0  0  0
  132.1190  134.5860  151.3850 O   0  0  0  0  0  0  0  0  0  0  0  0
  131.9080  133.6790  151.2890 H   0  0  0  0  0  0  0  0  0  0  0  0
  138.8770  137.8180  152.4600 C   0  0  0  0  0  2  0  0  0  0  0  0
  140.3710  137.8130  152.4900 C   0  0  0  0  0  0  0  0  0  0  0  0
  141.0840  138.1300  153.6470 C   0  0  0  0  0  3  0  0  0  0  0  0
  142.4700  138.0020  153.6710 C   0  0  0  0  0  3  0  0  0  0  0  0
  143.1750  137.5350  152.5510 C   0  0  0  0  0  0  0  0  0  0  0  0
  142.4330  137.1790  151.4090 C   0  0  0  0  0  3  0  0  0  0  0  0
  141.0510  137.3180  151.3790 C   0  0  0  0  0  3  0  0  0  0  0  0
  144.7000  137.3930  152.5430 C   0  0  0  0  0  0  0  0  0  0  0  0
  145.2280  136.6590  151.2920 C   0  0  0  0  0  1  0  0  0  0  0  0
  145.3500  138.7900  152.5880 C   0  0  0  0  0  1  0  0  0  0  0  0
  145.1470  136.5820  153.7780 C   0  0  0  0  0  1  0  0  0  0  0  0
  1  5  1  0  0  0  0
  1  3  1  0  0  0  0
  2  1  2  0  0  0  0
  3 17  1  0  0  0  0
  4  3  1  0  0  0  0
  5  6  1  6  0  0  0
  5  9  1  0  0  0  0
  7 12  1  0  0  0  0
  8  7  2  0  0  0  0
  8  9  1  0  0  0  0
  9 10  2  0  0  0  0
 10 11  1  0  0  0  0
 12 15  1  0  0  0  0
 12 11  2  0  0  0  0
 13 14  1  0  0  0  0
 14  7  1  0  0  0  0
 16 15  1  0  0  0  0
 17 18  1  0  0  0  0
 18 19  1  0  0  0  0
 19 20  2  0  0  0  0
 21 20  1  0  0  0  0
 22 21  2  0  0  0  0
 23 22  1  0  0  0  0
 23 18  2  0  0  0  0
 24 21  1  0  0  0  0
 24 26  1  0  0  0  0
 24 27  1  0  0  0  0
 25 24  1  0  0  0  0
M  END
>  <MODEL>
5

>  <REMARK>
 VINA RESULT:    -7.591      5.242      7.597
 INTER + INTRA:         -11.610
 INTER:                 -10.506
 INTRA:                  -1.104
 UNBOUND:                -1.134
  Name = CHEMBL2057846
  12 active torsions:
  status: ('A' for Active; 'I' for Inactive)
    1  A    between atoms: C_1  and  O_2
    2  A    between atoms: O_2  and  C_3
    3  A    between atoms: C_5  and  C_6
    4  A    between atoms: C_6  and  C_7
    5  A    between atoms: C_6  and  C_8
    6  A    between atoms: N_10  and  C_11
    7  A    between atoms: C_11  and  C_12
    8  A    between atoms: C_15  and  C_16
    9  A    between atoms: C_16  and  C_17
   10  A    between atoms: C_16  and  C_18
   11  A    between atoms: C_16  and  C_19
   12  A    between atoms: C_24  and  O_25
                            x       y       z     vdW  Elec       q    Type
                         _______ _______ _______ _____ _____    ______ ____

>  <TORSDO>
F 7

>  <SCORE>
-7.591

>  <RMSD_LB>
5.242

>  <RMSD_UB>
7.597

$$$$
CHEMBL2057846
 OpenBabel10172500553D

 27 28  0  0  1  0  0  0  0  0999 V2000
  139.9470  139.6540  150.7830 C   0  0  0  0  0  0  0  0  0  0  0  0
  139.1860  140.5890  151.0100 O   0  0  0  0  0  0  0  0  0  0  0  0
  141.0170  139.8470  149.9570 N   0  0  0  0  0  0  0  0  0  0  0  0
  141.1600  140.7540  149.6010 H   0  0  0  0  0  0  0  0  0  0  0  0
  139.7760  138.2520  151.3930 C   0  0  2  0  0  3  0  0  0  0  0  0
  138.3800  137.7220  151.0920 C   0  0  0  0  0  1  0  0  0  0  0  0
  139.4250  138.2240  155.2310 C   0  0  0  0  0  0  0  0  0  0  0  0
  139.1170  138.3380  153.8650 C   0  0  0  0  0  3  0  0  0  0  0  0
  140.1050  138.1800  152.8810 C   0  0  0  0  0  0  0  0  0  0  0  0
  141.4230  137.9150  153.2890 C   0  0  0  0  0  3  0  0  0  0  0  0
  141.7440  137.7990  154.6440 C   0  0  0  0  0  3  0  0  0  0  0  0
  140.7460  137.9440  155.6050 C   0  0  0  0  0  0  0  0  0  0  0  0
  137.2790  137.6640  156.0930 C   0  0  0  0  0  1  0  0  0  0  0  0
  138.5150  138.3490  156.2490 O   0  0  0  0  0  0  0  0  0  0  0  0
  141.0550  137.8110  156.9330 O   0  0  0  0  0  0  0  0  0  0  0  0
  141.9260  137.9860  157.2300 H   0  0  0  0  0  0  0  0  0  0  0  0
  141.9570  138.8210  149.5680 C   0  0  0  0  0  2  0  0  0  0  0  0
  143.1370  138.6910  150.4770 C   0  0  0  0  0  0  0  0  0  0  0  0
  143.6030  139.7670  151.2340 C   0  0  0  0  0  3  0  0  0  0  0  0
  144.6300  139.5790  152.1550 C   0  0  0  0  0  3  0  0  0  0  0  0
  145.2000  138.3130  152.3590 C   0  0  0  0  0  0  0  0  0  0  0  0
  144.6860  137.2340  151.6160 C   0  0  0  0  0  3  0  0  0  0  0  0
  143.6700  137.4210  150.6870 C   0  0  0  0  0  3  0  0  0  0  0  0
  146.3380  138.0770  153.3570 C   0  0  0  0  0  0  0  0  0  0  0  0
  146.2940  136.6730  153.9970 C   0  0  0  0  0  1  0  0  0  0  0  0
  147.6950  138.2350  152.6430 C   0  0  0  0  0  1  0  0  0  0  0  0
  146.2400  139.1100  154.5010 C   0  0  0  0  0  1  0  0  0  0  0  0
  1  2  2  0  0  0  0
  1  5  1  0  0  0  0
  3  1  1  0  0  0  0
  4  3  1  0  0  0  0
  5  6  1  1  0  0  0
  5  9  1  0  0  0  0
  7 12  1  0  0  0  0
  7 14  1  0  0  0  0
  8  7  2  0  0  0  0
  9 10  2  0  0  0  0
  9  8  1  0  0  0  0
 10 11  1  0  0  0  0
 11 12  2  0  0  0  0
 12 15  1  0  0  0  0
 13 14  1  0  0  0  0
 15 16  1  0  0  0  0
 17  3  1  0  0  0  0
 17 18  1  0  0  0  0
 18 23  2  0  0  0  0
 18 19  1  0  0  0  0
 19 20  2  0  0  0  0
 20 21  1  0  0  0  0
 21 24  1  0  0  0  0
 22 21  2  0  0  0  0
 23 22  1  0  0  0  0
 24 25  1  0  0  0  0
 24 27  1  0  0  0  0
 26 24  1  0  0  0  0
M  END
>  <MODEL>
6

>  <REMARK>
 VINA RESULT:    -7.324      2.232      3.485
 INTER + INTRA:         -11.242
 INTER:                  -9.394
 INTRA:                  -1.848
 UNBOUND:                -1.134
  Name = CHEMBL2057846
  12 active torsions:
  status: ('A' for Active; 'I' for Inactive)
    1  A    between atoms: C_1  and  O_2
    2  A    between atoms: O_2  and  C_3
    3  A    between atoms: C_5  and  C_6
    4  A    between atoms: C_6  and  C_7
    5  A    between atoms: C_6  and  C_8
    6  A    between atoms: N_10  and  C_11
    7  A    between atoms: C_11  and  C_12
    8  A    between atoms: C_15  and  C_16
    9  A    between atoms: C_16  and  C_17
   10  A    between atoms: C_16  and  C_18
   11  A    between atoms: C_16  and  C_19
   12  A    between atoms: C_24  and  O_25
                            x       y       z     vdW  Elec       q    Type
                         _______ _______ _______ _____ _____    ______ ____

>  <TORSDO>
F 7

>  <SCORE>
-7.324

>  <RMSD_LB>
2.232

>  <RMSD_UB>
3.485

$$$$
CHEMBL2057846
 OpenBabel10172500553D

 27 28  0  0  1  0  0  0  0  0999 V2000
  142.4070  138.1330  149.1990 C   0  0  0  0  0  0  0  0  0  0  0  0
  141.7940  139.1090  148.7780 O   0  0  0  0  0  0  0  0  0  0  0  0
  143.7220  137.9750  148.8680 N   0  0  0  0  0  0  0  0  0  0  0  0
  144.1450  138.6800  148.3270 H   0  0  0  0  0  0  0  0  0  0  0  0
  141.7780  137.0620  150.1070 C   0  0  2  0  0  3  0  0  0  0  0  0
  140.5570  136.4570  149.4250 C   0  0  0  0  0  1  0  0  0  0  0  0
  142.1570  138.4870  153.6680 C   0  0  0  0  0  0  0  0  0  0  0  0
  142.4670  137.9930  152.3900 C   0  0  0  0  0  3  0  0  0  0  0  0
  141.4600  137.5530  151.5150 C   0  0  0  0  0  0  0  0  0  0  0  0
  140.1250  137.6040  151.9490 C   0  0  0  0  0  3  0  0  0  0  0  0
  139.8020  138.0920  153.2180 C   0  0  0  0  0  3  0  0  0  0  0  0
  140.8140  138.5380  154.0650 C   0  0  0  0  0  0  0  0  0  0  0  0
  144.3590  139.2960  154.0600 C   0  0  0  0  0  1  0  0  0  0  0  0
  143.0790  138.9480  154.5710 O   0  0  0  0  0  0  0  0  0  0  0  0
  140.4970  139.0350  155.3010 O   0  0  0  0  0  0  0  0  0  0  0  0
  140.6040  139.9480  155.4810 H   0  0  0  0  0  0  0  0  0  0  0  0
  144.5420  136.8490  149.2540 C   0  0  0  0  0  2  0  0  0  0  0  0
  145.5730  137.1650  150.2890 C   0  0  0  0  0  0  0  0  0  0  0  0
  146.2200  138.4010  150.3280 C   0  0  0  0  0  3  0  0  0  0  0  0
  147.0880  138.7020  151.3730 C   0  0  0  0  0  3  0  0  0  0  0  0
  147.3160  137.7870  152.4130 C   0  0  0  0  0  0  0  0  0  0  0  0
  146.6220  136.5640  152.3770 C   0  0  0  0  0  3  0  0  0  0  0  0
  145.7640  136.2570  151.3280 C   0  0  0  0  0  3  0  0  0  0  0  0
  148.2740  138.0850  153.5720 C   0  0  0  0  0  0  0  0  0  0  0  0
  149.6550  137.4190  153.3940 C   0  0  0  0  0  1  0  0  0  0  0  0
  148.4890  139.6080  153.6870 C   0  0  0  0  0  1  0  0  0  0  0  0
  147.6690  137.5540  154.8890 C   0  0  0  0  0  1  0  0  0  0  0  0
  1  5  1  0  0  0  0
  2  1  2  0  0  0  0
  3  1  1  0  0  0  0
  3 17  1  0  0  0  0
  4  3  1  0  0  0  0
  5  6  1  6  0  0  0
  5  9  1  0  0  0  0
  7 12  1  0  0  0  0
  7 14  1  0  0  0  0
  8  7  2  0  0  0  0
  9 10  2  0  0  0  0
  9  8  1  0  0  0  0
 10 11  1  0  0  0  0
 11 12  2  0  0  0  0
 12 15  1  0  0  0  0
 13 14  1  0  0  0  0
 15 16  1  0  0  0  0
 17 18  1  0  0  0  0
 18 19  2  0  0  0  0
 18 23  1  0  0  0  0
 19 20  1  0  0  0  0
 20 21  2  0  0  0  0
 21 24  1  0  0  0  0
 22 21  1  0  0  0  0
 23 22  2  0  0  0  0
 24 26  1  0  0  0  0
 24 27  1  0  0  0  0
 25 24  1  0  0  0  0
M  END
>  <MODEL>
7

>  <REMARK>
 VINA RESULT:    -7.205      1.739      2.486
 INTER + INTRA:         -11.077
 INTER:                  -9.278
 INTRA:                  -1.799
 UNBOUND:                -1.134
  Name = CHEMBL2057846
  12 active torsions:
  status: ('A' for Active; 'I' for Inactive)
    1  A    between atoms: C_1  and  O_2
    2  A    between atoms: O_2  and  C_3
    3  A    between atoms: C_5  and  C_6
    4  A    between atoms: C_6  and  C_7
    5  A    between atoms: C_6  and  C_8
    6  A    between atoms: N_10  and  C_11
    7  A    between atoms: C_11  and  C_12
    8  A    between atoms: C_15  and  C_16
    9  A    between atoms: C_16  and  C_17
   10  A    between atoms: C_16  and  C_18
   11  A    between atoms: C_16  and  C_19
   12  A    between atoms: C_24  and  O_25
                            x       y       z     vdW  Elec       q    Type
                         _______ _______ _______ _____ _____    ______ ____

>  <TORSDO>
F 7

>  <SCORE>
-7.205

>  <RMSD_LB>
1.739

>  <RMSD_UB>
2.486

$$$$
CHEMBL2057846
 OpenBabel10172500553D

 27 28  0  0  1  0  0  0  0  0999 V2000
  139.7220  138.6330  149.5210 C   0  0  0  0  0  0  0  0  0  0  0  0
  139.1010  139.6790  149.6790 O   0  0  0  0  0  0  0  0  0  0  0  0
  140.5140  138.4840  148.4190 N   0  0  0  0  0  0  0  0  0  0  0  0
  140.5870  139.2480  147.8030 H   0  0  0  0  0  0  0  0  0  0  0  0
  139.6750  137.4590  150.5150 C   0  0  2  0  0  3  0  0  0  0  0  0
  138.2610  136.8970  150.5870 C   0  0  0  0  0  1  0  0  0  0  0  0
  139.9120  138.5260  154.2100 C   0  0  0  0  0  0  0  0  0  0  0  0
  139.4000  138.2640  152.9290 C   0  0  0  0  0  3  0  0  0  0  0  0
  140.2270  137.7950  151.8960 C   0  0  0  0  0  0  0  0  0  0  0  0
  141.5920  137.6020  152.1660 C   0  0  0  0  0  3  0  0  0  0  0  0
  142.1160  137.8590  153.4350 C   0  0  0  0  0  3  0  0  0  0  0  0
  141.2750  138.3090  154.4500 C   0  0  0  0  0  0  0  0  0  0  0  0
  138.0690  138.1590  155.6690 C   0  0  0  0  0  1  0  0  0  0  0  0
  139.1680  138.9690  155.2730 O   0  0  0  0  0  0  0  0  0  0  0  0
  141.7830  138.5420  155.7010 O   0  0  0  0  0  0  0  0  0  0  0  0
  142.3930  137.9400  156.0790 H   0  0  0  0  0  0  0  0  0  0  0  0
  141.2550  137.2890  148.0890 C   0  0  0  0  0  2  0  0  0  0  0  0
  142.5810  137.1780  148.7720 C   0  0  0  0  0  0  0  0  0  0  0  0
  143.3730  138.2990  149.0230 C   0  0  0  0  0  3  0  0  0  0  0  0
  144.5450  138.1740  149.7630 C   0  0  0  0  0  3  0  0  0  0  0  0
  144.9430  136.9350  150.2880 C   0  0  0  0  0  0  0  0  0  0  0  0
  144.1080  135.8260  150.0600 C   0  0  0  0  0  3  0  0  0  0  0  0
  142.9440  135.9460  149.3110 C   0  0  0  0  0  3  0  0  0  0  0  0
  146.2330  136.7630  151.0980 C   0  0  0  0  0  0  0  0  0  0  0  0
  145.9700  136.3920  152.5730 C   0  0  0  0  0  1  0  0  0  0  0  0
  147.0930  135.6480  150.4700 C   0  0  0  0  0  1  0  0  0  0  0  0
  147.0260  138.0870  151.0870 C   0  0  0  0  0  1  0  0  0  0  0  0
  1  2  2  0  0  0  0
  1  5  1  0  0  0  0
  3  1  1  0  0  0  0
  4  3  1  0  0  0  0
  5  6  1  1  0  0  0
  5  9  1  0  0  0  0
  7 12  1  0  0  0  0
  7 14  1  0  0  0  0
  8  7  2  0  0  0  0
  9 10  2  0  0  0  0
  9  8  1  0  0  0  0
 10 11  1  0  0  0  0
 11 12  2  0  0  0  0
 12 15  1  0  0  0  0
 14 13  1  0  0  0  0
 15 16  1  0  0  0  0
 17  3  1  0  0  0  0
 17 18  1  0  0  0  0
 18 19  2  0  0  0  0
 18 23  1  0  0  0  0
 19 20  1  0  0  0  0
 20 21  2  0  0  0  0
 21 24  1  0  0  0  0
 22 21  1  0  0  0  0
 23 22  2  0  0  0  0
 24 25  1  0  0  0  0
 26 24  1  0  0  0  0
 27 24  1  0  0  0  0
M  END
>  <MODEL>
8

>  <REMARK>
 VINA RESULT:    -7.180      2.564      3.935
 INTER + INTRA:         -11.043
 INTER:                  -9.048
 INTRA:                  -1.995
 UNBOUND:                -1.134
  Name = CHEMBL2057846
  12 active torsions:
  status: ('A' for Active; 'I' for Inactive)
    1  A    between atoms: C_1  and  O_2
    2  A    between atoms: O_2  and  C_3
    3  A    between atoms: C_5  and  C_6
    4  A    between atoms: C_6  and  C_7
    5  A    between atoms: C_6  and  C_8
    6  A    between atoms: N_10  and  C_11
    7  A    between atoms: C_11  and  C_12
    8  A    between atoms: C_15  and  C_16
    9  A    between atoms: C_16  and  C_17
   10  A    between atoms: C_16  and  C_18
   11  A    between atoms: C_16  and  C_19
   12  A    between atoms: C_24  and  O_25
                            x       y       z     vdW  Elec       q    Type
                         _______ _______ _______ _____ _____    ______ ____

>  <TORSDO>
F 7

>  <SCORE>
-7.180

>  <RMSD_LB>
2.564

>  <RMSD_UB>
3.935

$$$$
CHEMBL2057846
 OpenBabel10172500553D

 27 28  0  0  1  0  0  0  0  0999 V2000
  137.6110  139.0700  149.3040 C   0  0  0  0  0  0  0  0  0  0  0  0
  137.3310  140.2230  148.9920 O   0  0  0  0  0  0  0  0  0  0  0  0
  138.0750  138.8110  150.5620 N   0  0  0  0  0  0  0  0  0  0  0  0
  138.1320  139.5650  151.1910 H   0  0  0  0  0  0  0  0  0  0  0  0
  137.4560  137.8700  148.3530 C   0  0  2  0  0  3  0  0  0  0  0  0
  138.3180  138.0770  147.1130 C   0  0  0  0  0  1  0  0  0  0  0  0
  133.7550  136.8290  148.6190 C   0  0  0  0  0  0  0  0  0  0  0  0
  135.0970  137.0780  148.9520 C   0  0  0  0  0  3  0  0  0  0  0  0
  136.0090  137.5480  147.9940 C   0  0  0  0  0  0  0  0  0  0  0  0
  135.5560  137.7540  146.6810 C   0  0  0  0  0  3  0  0  0  0  0  0
  134.2240  137.5100  146.3350 C   0  0  0  0  0  3  0  0  0  0  0  0
  133.3310  137.0590  147.3040 C   0  0  0  0  0  0  0  0  0  0  0  0
  133.2450  136.0400  150.8050 C   0  0  0  0  0  1  0  0  0  0  0  0
  132.8020  136.3860  149.4990 O   0  0  0  0  0  0  0  0  0  0  0  0
  132.0210  136.8380  146.9710 O   0  0  0  0  0  0  0  0  0  0  0  0
  131.3970  137.5340  147.0380 H   0  0  0  0  0  0  0  0  0  0  0  0
  138.4880  137.5110  151.0390 C   0  0  0  0  0  2  0  0  0  0  0  0
  139.9480  137.4020  151.3400 C   0  0  0  0  0  0  0  0  0  0  0  0
  140.8740  137.0270  150.3650 C   0  0  0  0  0  3  0  0  0  0  0  0
  142.2360  137.0490  150.6510 C   0  0  0  0  0  3  0  0  0  0  0  0
  142.7080  137.4650  151.9050 C   0  0  0  0  0  0  0  0  0  0  0  0
  141.7610  137.8810  152.8590 C   0  0  0  0  0  3  0  0  0  0  0  0
  140.4000  137.8480  152.5810 C   0  0  0  0  0  3  0  0  0  0  0  0
  144.2000  137.4900  152.2520 C   0  0  0  0  0  0  0  0  0  0  0  0
  144.4960  136.9560  153.6700 C   0  0  0  0  0  1  0  0  0  0  0  0
  144.9810  136.6250  151.2430 C   0  0  0  0  0  1  0  0  0  0  0  0
  144.7190  138.9430  152.1870 C   0  0  0  0  0  1  0  0  0  0  0  0
  1  3  1  0  0  0  0
  2  1  2  0  0  0  0
  3 17  1  0  0  0  0
  3  4  1  0  0  0  0
  5  6  1  6  0  0  0
  5  1  1  0  0  0  0
  7  8  1  0  0  0  0
  7 14  1  0  0  0  0
  9  5  1  0  0  0  0
  9  8  2  0  0  0  0
 10  9  1  0  0  0  0
 11 10  2  0  0  0  0
 11 12  1  0  0  0  0
 12  7  2  0  0  0  0
 14 13  1  0  0  0  0
 15 16  1  0  0  0  0
 15 12  1  0  0  0  0
 17 18  1  0  0  0  0
 18 23  1  0  0  0  0
 19 20  1  0  0  0  0
 19 18  2  0  0  0  0
 20 21  2  0  0  0  0
 21 24  1  0  0  0  0
 21 22  1  0  0  0  0
 23 22  2  0  0  0  0
 24 25  1  0  0  0  0
 26 24  1  0  0  0  0
 27 24  1  0  0  0  0
M  END
>  <MODEL>
9

>  <REMARK>
 VINA RESULT:    -7.155      5.213      7.911
 INTER + INTRA:         -11.009
 INTER:                  -9.874
 INTRA:                  -1.134
 UNBOUND:                -1.134
  Name = CHEMBL2057846
  12 active torsions:
  status: ('A' for Active; 'I' for Inactive)
    1  A    between atoms: C_1  and  O_2
    2  A    between atoms: O_2  and  C_3
    3  A    between atoms: C_5  and  C_6
    4  A    between atoms: C_6  and  C_7
    5  A    between atoms: C_6  and  C_8
    6  A    between atoms: N_10  and  C_11
    7  A    between atoms: C_11  and  C_12
    8  A    between atoms: C_15  and  C_16
    9  A    between atoms: C_16  and  C_17
   10  A    between atoms: C_16  and  C_18
   11  A    between atoms: C_16  and  C_19
   12  A    between atoms: C_24  and  O_25
                            x       y       z     vdW  Elec       q    Type
                         _______ _______ _______ _____ _____    ______ ____

>  <TORSDO>
F 7

>  <SCORE>
-7.155

>  <RMSD_LB>
5.213

>  <RMSD_UB>
7.911

$$$$
