CHEMBL86684
 OpenBabel10162523433D

 25 25  0  0  0  0  0  0  0  0999 V2000
  145.6210  140.5850  148.8150 C   0  0  0  0  0  0  0  0  0  0  0  0
  146.6670  140.0490  148.4870 O   0  0  0  0  0  0  0  0  0  0  0  0
  145.5920  141.8060  149.4550 N   0  0  0  0  0  0  0  0  0  0  0  0
  144.7290  142.2040  149.7120 H   0  0  0  0  0  0  0  0  0  0  0  0
  144.2620  139.9530  148.5620 C   0  0  0  0  0  2  0  0  0  0  0  0
  143.4170  140.0110  149.8340 C   0  0  0  0  0  2  0  0  0  0  0  0
  142.3070  138.9690  149.8440 C   0  0  0  0  0  2  0  0  0  0  0  0
  142.3750  138.1340  151.1190 C   0  0  0  0  0  2  0  0  0  0  0  0
  143.4140  137.0350  150.9710 C   0  0  0  0  0  2  0  0  0  0  0  0
  144.4970  137.1930  152.0250 C   0  0  0  0  0  2  0  0  0  0  0  0
  145.8670  137.0220  151.3940 C   0  0  0  0  0  2  0  0  0  0  0  0
  146.6440  138.3200  151.4890 C   0  0  0  0  0  2  0  0  0  0  0  0
  148.8610  137.9690  153.2030 C   0  0  0  0  0  1  0  0  0  0  0  0
  147.8370  138.1310  152.4120 C   0  0  0  0  0  2  0  0  0  0  0  0
  146.8380  142.5120  149.7510 C   0  0  0  0  0  2  0  0  0  0  0  0
  147.3620  142.2130  151.1350 C   0  0  0  0  0  0  0  0  0  0  0  0
  148.7400  142.1650  151.3950 C   0  0  0  0  0  3  0  0  0  0  0  0
  149.2030  141.8530  152.6750 C   0  0  0  0  0  3  0  0  0  0  0  0
  148.3040  141.5990  153.7100 C   0  0  0  0  0  0  0  0  0  0  0  0
  146.9220  141.6440  153.4740 C   0  0  0  0  0  0  0  0  0  0  0  0
  146.4650  141.9700  152.1860 C   0  0  0  0  0  3  0  0  0  0  0  0
  148.7850  141.3010  154.9530 O   0  0  0  0  0  0  0  0  0  0  0  0
  148.7970  140.4120  155.2480 H   0  0  0  0  0  0  0  0  0  0  0  0
  145.9280  141.4000  154.3910 O   0  0  0  0  0  0  0  0  0  0  0  0
  145.4920  140.0470  154.5090 C   0  0  0  0  0  1  0  0  0  0  0  0
  1  3  1  0  0  0  0
  2  1  2  0  0  0  0
  3  4  1  0  0  0  0
  3 15  1  0  0  0  0
  5  1  1  0  0  0  0
  5  6  1  0  0  0  0
  6  7  1  0  0  0  0
  7  8  1  0  0  0  0
  9  8  1  0  0  0  0
  9 10  1  0  0  0  0
 11 12  1  0  0  0  0
 11 10  1  0  0  0  0
 12 14  1  0  0  0  0
 14 13  1  0  0  0  0
 15 16  1  0  0  0  0
 16 17  2  0  0  0  0
 16 21  1  0  0  0  0
 17 18  1  0  0  0  0
 18 19  2  0  0  0  0
 19 22  1  0  0  0  0
 20 19  1  0  0  0  0
 20 24  1  0  0  0  0
 21 20  2  0  0  0  0
 22 23  1  0  0  0  0
 24 25  1  0  0  0  0
M  END
>  <MODEL>
1

>  <REMARK>
 VINA RESULT:    -6.330      0.000      0.000
 INTER + INTRA:         -12.073
 INTER:                  -9.785
 INTRA:                  -2.288
 UNBOUND:                -1.116
  Name = CHEMBL86684
  14 active torsions:
  status: ('A' for Active; 'I' for Inactive)
    1  A    between atoms: C_2  and  C_3
    2  A    between atoms: C_3  and  C_4
    3  A    between atoms: C_4  and  C_5
    4  A    between atoms: C_5  and  C_6
    5  A    between atoms: C_6  and  C_7
    6  A    between atoms: C_7  and  C_8
    7  A    between atoms: C_8  and  C_9
    8  A    between atoms: C_9  and  C_10
    9  A    between atoms: C_10  and  C_11
   10  A    between atoms: N_13  and  C_14
   11  A    between atoms: C_14  and  C_15
   12  A    between atoms: C_18  and  O_19
   13  A    between atoms: C_20  and  O_21
   14  A    between atoms: O_21  and  C_22
                            x       y       z     vdW  Elec       q    Type
                         _______ _______ _______ _____ _____    ______ ____

>  <TORSDO>
F 13

>  <SCORE>
-6.330

>  <RMSD_LB>
0.000

>  <RMSD_UB>
0.000

$$$$
CHEMBL86684
 OpenBabel10162523433D

 25 25  0  0  0  0  0  0  0  0999 V2000
  141.5070  139.6660  150.4490 C   0  0  0  0  0  0  0  0  0  0  0  0
  141.2990  140.4010  149.4970 O   0  0  0  0  0  0  0  0  0  0  0  0
  142.7410  139.5900  151.0600 N   0  0  0  0  0  0  0  0  0  0  0  0
  142.8740  138.9790  151.8200 H   0  0  0  0  0  0  0  0  0  0  0  0
  140.4360  138.7630  151.0370 C   0  0  0  0  0  2  0  0  0  0  0  0
  140.6870  138.5610  152.5300 C   0  0  0  0  0  2  0  0  0  0  0  0
  139.4930  137.9450  153.2450 C   0  0  0  0  0  2  0  0  0  0  0  0
  139.3430  138.5410  154.6400 C   0  0  0  0  0  2  0  0  0  0  0  0
  140.5060  138.1160  155.5200 C   0  0  0  0  0  2  0  0  0  0  0  0
  140.0130  137.2210  156.6440 C   0  0  0  0  0  2  0  0  0  0  0  0
  138.5140  137.3840  156.8210 C   0  0  0  0  0  2  0  0  0  0  0  0
  137.8450  136.0250  156.8240 C   0  0  0  0  0  2  0  0  0  0  0  0
  136.2850  135.7360  154.4880 C   0  0  0  0  0  1  0  0  0  0  0  0
  137.0050  135.8690  155.5670 C   0  0  0  0  0  2  0  0  0  0  0  0
  143.8510  140.4130  150.5830 C   0  0  0  0  0  2  0  0  0  0  0  0
  144.7860  140.8300  151.6920 C   0  0  0  0  0  0  0  0  0  0  0  0
  145.5570  141.9990  151.5920 C   0  0  0  0  0  3  0  0  0  0  0  0
  146.4400  142.3470  152.6150 C   0  0  0  0  0  3  0  0  0  0  0  0
  146.5580  141.5470  153.7520 C   0  0  0  0  0  0  0  0  0  0  0  0
  145.7970  140.3750  153.8740 C   0  0  0  0  0  0  0  0  0  0  0  0
  144.9020  140.0390  152.8450 C   0  0  0  0  0  3  0  0  0  0  0  0
  147.4280  141.9140  154.7380 O   0  0  0  0  0  0  0  0  0  0  0  0
  148.3500  141.9090  154.5740 H   0  0  0  0  0  0  0  0  0  0  0  0
  145.8250  139.4890  154.9240 O   0  0  0  0  0  0  0  0  0  0  0  0
  146.1870  138.1460  154.6100 C   0  0  0  0  0  1  0  0  0  0  0  0
  1  5  1  0  0  0  0
  1  3  1  0  0  0  0
  2  1  2  0  0  0  0
  3  4  1  0  0  0  0
  5  6  1  0  0  0  0
  6  7  1  0  0  0  0
  7  8  1  0  0  0  0
  8  9  1  0  0  0  0
  9 10  1  0  0  0  0
 10 11  1  0  0  0  0
 11 12  1  0  0  0  0
 13 14  1  0  0  0  0
 14 12  1  0  0  0  0
 15  3  1  0  0  0  0
 15 16  1  0  0  0  0
 16 21  1  0  0  0  0
 17 16  2  0  0  0  0
 17 18  1  0  0  0  0
 18 19  2  0  0  0  0
 19 20  1  0  0  0  0
 19 22  1  0  0  0  0
 20 24  1  0  0  0  0
 21 20  2  0  0  0  0
 23 22  1  0  0  0  0
 25 24  1  0  0  0  0
M  END
>  <MODEL>
2

>  <REMARK>
 VINA RESULT:    -6.293      4.092      5.805
 INTER + INTRA:         -12.008
 INTER:                 -10.820
 INTRA:                  -1.188
 UNBOUND:                -1.116
  Name = CHEMBL86684
  14 active torsions:
  status: ('A' for Active; 'I' for Inactive)
    1  A    between atoms: C_2  and  C_3
    2  A    between atoms: C_3  and  C_4
    3  A    between atoms: C_4  and  C_5
    4  A    between atoms: C_5  and  C_6
    5  A    between atoms: C_6  and  C_7
    6  A    between atoms: C_7  and  C_8
    7  A    between atoms: C_8  and  C_9
    8  A    between atoms: C_9  and  C_10
    9  A    between atoms: C_10  and  C_11
   10  A    between atoms: N_13  and  C_14
   11  A    between atoms: C_14  and  C_15
   12  A    between atoms: C_18  and  O_19
   13  A    between atoms: C_20  and  O_21
   14  A    between atoms: O_21  and  C_22
                            x       y       z     vdW  Elec       q    Type
                         _______ _______ _______ _____ _____    ______ ____

>  <TORSDO>
F 13

>  <SCORE>
-6.293

>  <RMSD_LB>
4.092

>  <RMSD_UB>
5.805

$$$$
CHEMBL86684
 OpenBabel10162523433D

 25 25  0  0  0  0  0  0  0  0999 V2000
  133.8000  135.3670  152.7910 C   0  0  0  0  0  0  0  0  0  0  0  0
  133.9500  136.5160  152.4110 O   0  0  0  0  0  0  0  0  0  0  0  0
  133.0510  134.4530  152.0810 N   0  0  0  0  0  0  0  0  0  0  0  0
  132.9440  133.5360  152.4230 H   0  0  0  0  0  0  0  0  0  0  0  0
  134.4080  134.8440  154.0830 C   0  0  0  0  0  2  0  0  0  0  0  0
  135.9310  134.9180  154.0080 C   0  0  0  0  0  2  0  0  0  0  0  0
  136.4970  136.1040  154.7770 C   0  0  0  0  0  2  0  0  0  0  0  0
  136.3410  135.8860  156.2780 C   0  0  0  0  0  2  0  0  0  0  0  0
  137.5750  136.3830  157.0120 C   0  0  0  0  0  2  0  0  0  0  0  0
  137.3370  137.7830  157.5500 C   0  0  0  0  0  2  0  0  0  0  0  0
  137.6280  137.8250  159.0400 C   0  0  0  0  0  2  0  0  0  0  0  0
  136.3650  138.1750  159.8020 C   0  0  0  0  0  2  0  0  0  0  0  0
  134.6220  135.9530  159.8120 C   0  0  0  0  0  1  0  0  0  0  0  0
  135.4270  136.9790  159.8070 C   0  0  0  0  0  2  0  0  0  0  0  0
  132.4170  134.8390  150.8220 C   0  0  0  0  0  2  0  0  0  0  0  0
  133.0880  134.2240  149.6180 C   0  0  0  0  0  0  0  0  0  0  0  0
  133.6500  132.9390  149.6760 C   0  0  0  0  0  3  0  0  0  0  0  0
  134.2960  132.4030  148.5610 C   0  0  0  0  0  3  0  0  0  0  0  0
  134.3790  133.1310  147.3740 C   0  0  0  0  0  0  0  0  0  0  0  0
  133.8230  134.4160  147.2910 C   0  0  0  0  0  0  0  0  0  0  0  0
  133.1650  134.9420  148.4150 C   0  0  0  0  0  3  0  0  0  0  0  0
  135.0130  132.5800  146.2980 O   0  0  0  0  0  0  0  0  0  0  0  0
  135.2660  133.1210  145.5760 H   0  0  0  0  0  0  0  0  0  0  0  0
  133.8460  135.2470  146.1970 O   0  0  0  0  0  0  0  0  0  0  0  0
  135.1340  135.6560  145.7390 C   0  0  0  0  0  1  0  0  0  0  0  0
  1  5  1  0  0  0  0
  2  1  2  0  0  0  0
  3  4  1  0  0  0  0
  3  1  1  0  0  0  0
  6  5  1  0  0  0  0
  6  7  1  0  0  0  0
  7  8  1  0  0  0  0
  8  9  1  0  0  0  0
  9 10  1  0  0  0  0
 10 11  1  0  0  0  0
 11 12  1  0  0  0  0
 12 14  1  0  0  0  0
 14 13  1  0  0  0  0
 15  3  1  0  0  0  0
 16 17  1  0  0  0  0
 16 15  1  0  0  0  0
 18 17  2  0  0  0  0
 19 18  1  0  0  0  0
 20 19  2  0  0  0  0
 20 21  1  0  0  0  0
 21 16  2  0  0  0  0
 22 19  1  0  0  0  0
 23 22  1  0  0  0  0
 24 20  1  0  0  0  0
 25 24  1  0  0  0  0
M  END
>  <MODEL>
3

>  <REMARK>
 VINA RESULT:    -6.184     11.602     14.263
 INTER + INTRA:         -11.820
 INTER:                 -11.090
 INTRA:                  -0.730
 UNBOUND:                -1.116
  Name = CHEMBL86684
  14 active torsions:
  status: ('A' for Active; 'I' for Inactive)
    1  A    between atoms: C_2  and  C_3
    2  A    between atoms: C_3  and  C_4
    3  A    between atoms: C_4  and  C_5
    4  A    between atoms: C_5  and  C_6
    5  A    between atoms: C_6  and  C_7
    6  A    between atoms: C_7  and  C_8
    7  A    between atoms: C_8  and  C_9
    8  A    between atoms: C_9  and  C_10
    9  A    between atoms: C_10  and  C_11
   10  A    between atoms: N_13  and  C_14
   11  A    between atoms: C_14  and  C_15
   12  A    between atoms: C_18  and  O_19
   13  A    between atoms: C_20  and  O_21
   14  A    between atoms: O_21  and  C_22
                            x       y       z     vdW  Elec       q    Type
                         _______ _______ _______ _____ _____    ______ ____

>  <TORSDO>
F 13

>  <SCORE>
-6.184

>  <RMSD_LB>
11.602

>  <RMSD_UB>
14.263

$$$$
CHEMBL86684
 OpenBabel10162523433D

 25 25  0  0  0  0  0  0  0  0999 V2000
  145.7970  136.9330  149.6560 C   0  0  0  0  0  0  0  0  0  0  0  0
  145.7050  135.7260  149.8080 O   0  0  0  0  0  0  0  0  0  0  0  0
  146.6980  137.6940  150.3710 N   0  0  0  0  0  0  0  0  0  0  0  0
  146.7380  138.6680  150.2290 H   0  0  0  0  0  0  0  0  0  0  0  0
  144.9240  137.7060  148.6820 C   0  0  0  0  0  2  0  0  0  0  0  0
  143.7660  138.3640  149.4300 C   0  0  0  0  0  2  0  0  0  0  0  0
  143.7470  139.8770  149.2630 C   0  0  0  0  0  2  0  0  0  0  0  0
  145.0450  140.3570  148.6220 C   0  0  0  0  0  2  0  0  0  0  0  0
  145.9080  141.0660  149.6530 C   0  0  0  0  0  2  0  0  0  0  0  0
  145.0830  141.4080  150.8820 C   0  0  0  0  0  2  0  0  0  0  0  0
  145.6840  142.6050  151.5970 C   0  0  0  0  0  2  0  0  0  0  0  0
  146.1210  142.2050  152.9910 C   0  0  0  0  0  2  0  0  0  0  0  0
  148.7970  141.3030  152.9190 C   0  0  0  0  0  1  0  0  0  0  0  0
  147.5610  141.7200  152.9530 C   0  0  0  0  0  2  0  0  0  0  0  0
  147.5920  137.0610  151.3390 C   0  0  0  0  0  2  0  0  0  0  0  0
  147.3900  137.5760  152.7440 C   0  0  0  0  0  0  0  0  0  0  0  0
  148.3890  137.4390  153.7190 C   0  0  0  0  0  3  0  0  0  0  0  0
  148.1670  137.8910  155.0210 C   0  0  0  0  0  3  0  0  0  0  0  0
  146.9570  138.4950  155.3640 C   0  0  0  0  0  0  0  0  0  0  0  0
  145.9450  138.6450  154.4050 C   0  0  0  0  0  0  0  0  0  0  0  0
  146.1810  138.1970  153.0950 C   0  0  0  0  0  3  0  0  0  0  0  0
  146.7690  138.9310  156.6440 O   0  0  0  0  0  0  0  0  0  0  0  0
  147.5090  139.0980  157.1940 H   0  0  0  0  0  0  0  0  0  0  0  0
  144.7050  139.2020  154.6070 O   0  0  0  0  0  0  0  0  0  0  0  0
  143.8080  139.1680  153.4980 C   0  0  0  0  0  1  0  0  0  0  0  0
  1  2  2  0  0  0  0
  1  3  1  0  0  0  0
  3 15  1  0  0  0  0
  4  3  1  0  0  0  0
  5  6  1  0  0  0  0
  5  1  1  0  0  0  0
  7  6  1  0  0  0  0
  8  7  1  0  0  0  0
  8  9  1  0  0  0  0
  9 10  1  0  0  0  0
 10 11  1  0  0  0  0
 11 12  1  0  0  0  0
 13 14  1  0  0  0  0
 14 12  1  0  0  0  0
 15 16  1  0  0  0  0
 16 21  2  0  0  0  0
 16 17  1  0  0  0  0
 17 18  2  0  0  0  0
 18 19  1  0  0  0  0
 19 22  1  0  0  0  0
 20 24  1  0  0  0  0
 20 19  2  0  0  0  0
 21 20  1  0  0  0  0
 22 23  1  0  0  0  0
 25 24  1  0  0  0  0
M  END
>  <MODEL>
4

>  <REMARK>
 VINA RESULT:    -6.035      2.100      4.022
 INTER + INTRA:         -11.562
 INTER:                  -9.330
 INTRA:                  -2.232
 UNBOUND:                -1.116
  Name = CHEMBL86684
  14 active torsions:
  status: ('A' for Active; 'I' for Inactive)
    1  A    between atoms: C_2  and  C_3
    2  A    between atoms: C_3  and  C_4
    3  A    between atoms: C_4  and  C_5
    4  A    between atoms: C_5  and  C_6
    5  A    between atoms: C_6  and  C_7
    6  A    between atoms: C_7  and  C_8
    7  A    between atoms: C_8  and  C_9
    8  A    between atoms: C_9  and  C_10
    9  A    between atoms: C_10  and  C_11
   10  A    between atoms: N_13  and  C_14
   11  A    between atoms: C_14  and  C_15
   12  A    between atoms: C_18  and  O_19
   13  A    between atoms: C_20  and  O_21
   14  A    between atoms: O_21  and  C_22
                            x       y       z     vdW  Elec       q    Type
                         _______ _______ _______ _____ _____    ______ ____

>  <TORSDO>
F 13

>  <SCORE>
-6.035

>  <RMSD_LB>
2.100

>  <RMSD_UB>
4.022

$$$$
CHEMBL86684
 OpenBabel10162523433D

 25 25  0  0  0  0  0  0  0  0999 V2000
  146.1690  137.6620  151.6220 C   0  0  0  0  0  0  0  0  0  0  0  0
  145.9840  138.6810  150.9770 O   0  0  0  0  0  0  0  0  0  0  0  0
  145.2460  136.6390  151.6560 N   0  0  0  0  0  0  0  0  0  0  0  0
  145.4250  135.8340  152.1950 H   0  0  0  0  0  0  0  0  0  0  0  0
  147.4210  137.4340  152.4530 C   0  0  0  0  0  2  0  0  0  0  0  0
  147.0830  137.5310  153.9400 C   0  0  0  0  0  2  0  0  0  0  0  0
  148.0440  138.4350  154.6990 C   0  0  0  0  0  2  0  0  0  0  0  0
  147.6010  139.8900  154.5930 C   0  0  0  0  0  2  0  0  0  0  0  0
  148.6740  140.7170  153.9040 C   0  0  0  0  0  2  0  0  0  0  0  0
  148.0520  141.6000  152.8370 C   0  0  0  0  0  2  0  0  0  0  0  0
  146.7120  142.1290  153.3150 C   0  0  0  0  0  2  0  0  0  0  0  0
  145.6750  141.9700  152.2210 C   0  0  0  0  0  2  0  0  0  0  0  0
  146.7530  142.8430  149.7620 C   0  0  0  0  0  1  0  0  0  0  0  0
  146.2550  142.4400  150.8980 C   0  0  0  0  0  2  0  0  0  0  0  0
  144.0020  136.7430  150.8940 C   0  0  0  0  0  2  0  0  0  0  0  0
  142.8440  137.2270  151.7330 C   0  0  0  0  0  0  0  0  0  0  0  0
  143.0250  137.6090  153.0710 C   0  0  0  0  0  3  0  0  0  0  0  0
  141.9340  138.0210  153.8380 C   0  0  0  0  0  3  0  0  0  0  0  0
  140.6560  138.0700  153.2810 C   0  0  0  0  0  0  0  0  0  0  0  0
  140.4510  137.6950  151.9460 C   0  0  0  0  0  0  0  0  0  0  0  0
  141.5570  137.2930  151.1780 C   0  0  0  0  0  3  0  0  0  0  0  0
  139.6080  138.4800  154.0540 O   0  0  0  0  0  0  0  0  0  0  0  0
  138.7540  138.1200  153.9140 H   0  0  0  0  0  0  0  0  0  0  0  0
  139.2510  137.6770  151.2760 O   0  0  0  0  0  0  0  0  0  0  0  0
  138.8420  138.9060  150.6780 C   0  0  0  0  0  1  0  0  0  0  0  0
  1  3  1  0  0  0  0
  1  5  1  0  0  0  0
  2  1  2  0  0  0  0
  3  4  1  0  0  0  0
  5  6  1  0  0  0  0
  6  7  1  0  0  0  0
  8  7  1  0  0  0  0
  9  8  1  0  0  0  0
 10 11  1  0  0  0  0
 10  9  1  0  0  0  0
 12 11  1  0  0  0  0
 13 14  1  0  0  0  0
 14 12  1  0  0  0  0
 15  3  1  0  0  0  0
 15 16  1  0  0  0  0
 16 17  1  0  0  0  0
 17 18  2  0  0  0  0
 19 18  1  0  0  0  0
 19 22  1  0  0  0  0
 20 19  2  0  0  0  0
 21 16  2  0  0  0  0
 21 20  1  0  0  0  0
 23 22  1  0  0  0  0
 24 20  1  0  0  0  0
 25 24  1  0  0  0  0
M  END
>  <MODEL>
5

>  <REMARK>
 VINA RESULT:    -6.010      3.033      6.685
 INTER + INTRA:         -11.518
 INTER:                 -10.233
 INTRA:                  -1.285
 UNBOUND:                -1.116
  Name = CHEMBL86684
  14 active torsions:
  status: ('A' for Active; 'I' for Inactive)
    1  A    between atoms: C_2  and  C_3
    2  A    between atoms: C_3  and  C_4
    3  A    between atoms: C_4  and  C_5
    4  A    between atoms: C_5  and  C_6
    5  A    between atoms: C_6  and  C_7
    6  A    between atoms: C_7  and  C_8
    7  A    between atoms: C_8  and  C_9
    8  A    between atoms: C_9  and  C_10
    9  A    between atoms: C_10  and  C_11
   10  A    between atoms: N_13  and  C_14
   11  A    between atoms: C_14  and  C_15
   12  A    between atoms: C_18  and  O_19
   13  A    between atoms: C_20  and  O_21
   14  A    between atoms: O_21  and  C_22
                            x       y       z     vdW  Elec       q    Type
                         _______ _______ _______ _____ _____    ______ ____

>  <TORSDO>
F 13

>  <SCORE>
-6.010

>  <RMSD_LB>
3.033

>  <RMSD_UB>
6.685

$$$$
CHEMBL86684
 OpenBabel10162523433D

 25 25  0  0  0  0  0  0  0  0999 V2000
  143.8860  139.3480  151.0230 C   0  0  0  0  0  0  0  0  0  0  0  0
  144.3170  139.2590  152.1610 O   0  0  0  0  0  0  0  0  0  0  0  0
  143.0080  138.4240  150.4990 N   0  0  0  0  0  0  0  0  0  0  0  0
  142.6870  138.5230  149.5730 H   0  0  0  0  0  0  0  0  0  0  0  0
  144.2860  140.4710  150.0800 C   0  0  0  0  0  2  0  0  0  0  0  0
  145.1800  141.4710  150.8110 C   0  0  0  0  0  2  0  0  0  0  0  0
  146.6580  141.2560  150.5170 C   0  0  0  0  0  2  0  0  0  0  0  0
  147.4970  142.3280  151.2040 C   0  0  0  0  0  2  0  0  0  0  0  0
  148.6900  141.6940  151.9000 C   0  0  0  0  0  2  0  0  0  0  0  0
  148.5960  141.9070  153.4010 C   0  0  0  0  0  2  0  0  0  0  0  0
  148.7140  140.5770  154.1240 C   0  0  0  0  0  2  0  0  0  0  0  0
  147.4060  139.8190  154.0270 C   0  0  0  0  0  2  0  0  0  0  0  0
  147.8050  137.4280  152.5770 C   0  0  0  0  0  1  0  0  0  0  0  0
  147.6210  138.5320  153.2470 C   0  0  0  0  0  2  0  0  0  0  0  0
  142.5500  137.2980  151.3120 C   0  0  0  0  0  2  0  0  0  0  0  0
  141.2520  137.5860  152.0270 C   0  0  0  0  0  0  0  0  0  0  0  0
  140.0210  137.5090  151.3580 C   0  0  0  0  0  3  0  0  0  0  0  0
  138.8350  137.8120  152.0300 C   0  0  0  0  0  3  0  0  0  0  0  0
  138.8590  138.1810  153.3740 C   0  0  0  0  0  0  0  0  0  0  0  0
  140.0770  138.2630  154.0650 C   0  0  0  0  0  0  0  0  0  0  0  0
  141.2640  137.9450  153.3840 C   0  0  0  0  0  3  0  0  0  0  0  0
  137.6840  138.4690  154.0070 O   0  0  0  0  0  0  0  0  0  0  0  0
  137.6760  138.6270  154.9310 H   0  0  0  0  0  0  0  0  0  0  0  0
  140.2490  138.6290  155.3780 O   0  0  0  0  0  0  0  0  0  0  0  0
  139.9120  137.6490  156.3580 C   0  0  0  0  0  1  0  0  0  0  0  0
  1  2  2  0  0  0  0
  3  1  1  0  0  0  0
  3 15  1  0  0  0  0
  4  3  1  0  0  0  0
  5  6  1  0  0  0  0
  5  1  1  0  0  0  0
  7  6  1  0  0  0  0
  7  8  1  0  0  0  0
  8  9  1  0  0  0  0
  9 10  1  0  0  0  0
 10 11  1  0  0  0  0
 12 11  1  0  0  0  0
 13 14  1  0  0  0  0
 14 12  1  0  0  0  0
 15 16  1  0  0  0  0
 16 21  1  0  0  0  0
 17 16  2  0  0  0  0
 17 18  1  0  0  0  0
 18 19  2  0  0  0  0
 19 22  1  0  0  0  0
 19 20  1  0  0  0  0
 20 24  1  0  0  0  0
 21 20  2  0  0  0  0
 22 23  1  0  0  0  0
 24 25  1  0  0  0  0
M  END
>  <MODEL>
6

>  <REMARK>
 VINA RESULT:    -5.983      3.358      6.608
 INTER + INTRA:         -11.471
 INTER:                 -10.227
 INTRA:                  -1.244
 UNBOUND:                -1.116
  Name = CHEMBL86684
  14 active torsions:
  status: ('A' for Active; 'I' for Inactive)
    1  A    between atoms: C_2  and  C_3
    2  A    between atoms: C_3  and  C_4
    3  A    between atoms: C_4  and  C_5
    4  A    between atoms: C_5  and  C_6
    5  A    between atoms: C_6  and  C_7
    6  A    between atoms: C_7  and  C_8
    7  A    between atoms: C_8  and  C_9
    8  A    between atoms: C_9  and  C_10
    9  A    between atoms: C_10  and  C_11
   10  A    between atoms: N_13  and  C_14
   11  A    between atoms: C_14  and  C_15
   12  A    between atoms: C_18  and  O_19
   13  A    between atoms: C_20  and  O_21
   14  A    between atoms: O_21  and  C_22
                            x       y       z     vdW  Elec       q    Type
                         _______ _______ _______ _____ _____    ______ ____

>  <TORSDO>
F 13

>  <SCORE>
-5.983

>  <RMSD_LB>
3.358

>  <RMSD_UB>
6.608

$$$$
CHEMBL86684
 OpenBabel10162523433D

 25 25  0  0  0  0  0  0  0  0999 V2000
  139.2230  138.2170  150.8470 C   0  0  0  0  0  0  0  0  0  0  0  0
  139.3520  138.1220  149.6370 O   0  0  0  0  0  0  0  0  0  0  0  0
  138.0840  137.7930  151.4980 N   0  0  0  0  0  0  0  0  0  0  0  0
  138.0120  137.8940  152.4750 H   0  0  0  0  0  0  0  0  0  0  0  0
  140.2950  138.8200  151.7400 C   0  0  0  0  0  2  0  0  0  0  0  0
  140.6380  137.8500  152.8690 C   0  0  0  0  0  2  0  0  0  0  0  0
  141.6680  138.4180  153.8340 C   0  0  0  0  0  2  0  0  0  0  0  0
  141.1670  138.3110  155.2700 C   0  0  0  0  0  2  0  0  0  0  0  0
  139.6530  138.1730  155.2880 C   0  0  0  0  0  2  0  0  0  0  0  0
  139.1960  137.5820  156.6100 C   0  0  0  0  0  2  0  0  0  0  0  0
  137.7090  137.2800  156.5600 C   0  0  0  0  0  2  0  0  0  0  0  0
  137.4840  135.7840  156.6340 C   0  0  0  0  0  2  0  0  0  0  0  0
  136.2770  135.1310  159.1020 C   0  0  0  0  0  1  0  0  0  0  0  0
  136.8340  135.4320  157.9630 C   0  0  0  0  0  2  0  0  0  0  0  0
  136.9840  137.1950  150.7440 C   0  0  0  0  0  2  0  0  0  0  0  0
  136.1830  136.2110  151.5630 C   0  0  0  0  0  0  0  0  0  0  0  0
  136.2690  136.1910  152.9630 C   0  0  0  0  0  3  0  0  0  0  0  0
  135.5460  135.2500  153.6980 C   0  0  0  0  0  3  0  0  0  0  0  0
  134.7200  134.3300  153.0520 C   0  0  0  0  0  0  0  0  0  0  0  0
  134.6160  134.3330  151.6530 C   0  0  0  0  0  0  0  0  0  0  0  0
  135.3390  135.2910  150.9220 C   0  0  0  0  0  3  0  0  0  0  0  0
  134.0210  133.4240  153.7960 O   0  0  0  0  0  0  0  0  0  0  0  0
  133.6180  132.6890  153.3800 H   0  0  0  0  0  0  0  0  0  0  0  0
  133.8600  133.4780  150.8880 O   0  0  0  0  0  0  0  0  0  0  0  0
  132.5960  133.9730  150.4480 C   0  0  0  0  0  1  0  0  0  0  0  0
  1  3  1  0  0  0  0
  1  5  1  0  0  0  0
  2  1  2  0  0  0  0
  3  4  1  0  0  0  0
  5  6  1  0  0  0  0
  6  7  1  0  0  0  0
  7  8  1  0  0  0  0
  8  9  1  0  0  0  0
  9 10  1  0  0  0  0
 11 10  1  0  0  0  0
 11 12  1  0  0  0  0
 12 14  1  0  0  0  0
 14 13  1  0  0  0  0
 15  3  1  0  0  0  0
 15 16  1  0  0  0  0
 16 17  1  0  0  0  0
 17 18  2  0  0  0  0
 19 18  1  0  0  0  0
 19 22  1  0  0  0  0
 20 19  2  0  0  0  0
 21 16  2  0  0  0  0
 21 20  1  0  0  0  0
 23 22  1  0  0  0  0
 24 20  1  0  0  0  0
 25 24  1  0  0  0  0
M  END
>  <MODEL>
7

>  <REMARK>
 VINA RESULT:    -5.873      8.009     11.371
 INTER + INTRA:         -11.280
 INTER:                 -10.067
 INTRA:                  -1.213
 UNBOUND:                -1.116
  Name = CHEMBL86684
  14 active torsions:
  status: ('A' for Active; 'I' for Inactive)
    1  A    between atoms: C_2  and  C_3
    2  A    between atoms: C_3  and  C_4
    3  A    between atoms: C_4  and  C_5
    4  A    between atoms: C_5  and  C_6
    5  A    between atoms: C_6  and  C_7
    6  A    between atoms: C_7  and  C_8
    7  A    between atoms: C_8  and  C_9
    8  A    between atoms: C_9  and  C_10
    9  A    between atoms: C_10  and  C_11
   10  A    between atoms: N_13  and  C_14
   11  A    between atoms: C_14  and  C_15
   12  A    between atoms: C_18  and  O_19
   13  A    between atoms: C_20  and  O_21
   14  A    between atoms: O_21  and  C_22
                            x       y       z     vdW  Elec       q    Type
                         _______ _______ _______ _____ _____    ______ ____

>  <TORSDO>
F 13

>  <SCORE>
-5.873

>  <RMSD_LB>
8.009

>  <RMSD_UB>
11.371

$$$$
CHEMBL86684
 OpenBabel10162523433D

 25 25  0  0  0  0  0  0  0  0999 V2000
  138.1280  137.4190  150.1620 C   0  0  0  0  0  0  0  0  0  0  0  0
  137.9090  138.6140  150.0460 O   0  0  0  0  0  0  0  0  0  0  0  0
  139.3760  136.9310  150.4880 N   0  0  0  0  0  0  0  0  0  0  0  0
  139.5180  135.9600  150.5640 H   0  0  0  0  0  0  0  0  0  0  0  0
  137.0560  136.3640  149.9470 C   0  0  0  0  0  2  0  0  0  0  0  0
  136.3740  136.0370  151.2740 C   0  0  0  0  0  2  0  0  0  0  0  0
  135.8150  134.6220  151.3110 C   0  0  0  0  0  2  0  0  0  0  0  0
  135.7350  134.1190  152.7480 C   0  0  0  0  0  2  0  0  0  0  0  0
  134.2880  134.0920  153.2140 C   0  0  0  0  0  2  0  0  0  0  0  0
  133.9530  135.3720  153.9580 C   0  0  0  0  0  2  0  0  0  0  0  0
  135.0040  135.6510  155.0170 C   0  0  0  0  0  2  0  0  0  0  0  0
  134.6870  134.8700  156.2760 C   0  0  0  0  0  2  0  0  0  0  0  0
  136.4680  135.6280  158.3320 C   0  0  0  0  0  1  0  0  0  0  0  0
  135.6460  135.2780  157.3830 C   0  0  0  0  0  2  0  0  0  0  0  0
  140.4890  137.8510  150.7190 C   0  0  0  0  0  2  0  0  0  0  0  0
  140.8330  137.9930  152.1830 C   0  0  0  0  0  0  0  0  0  0  0  0
  142.1180  137.6950  152.6600 C   0  0  0  0  0  3  0  0  0  0  0  0
  142.4040  137.8010  154.0220 C   0  0  0  0  0  3  0  0  0  0  0  0
  141.4220  138.2170  154.9210 C   0  0  0  0  0  0  0  0  0  0  0  0
  140.1300  138.5220  154.4670 C   0  0  0  0  0  0  0  0  0  0  0  0
  139.8550  138.4240  153.0930 C   0  0  0  0  0  3  0  0  0  0  0  0
  141.7300  138.3150  156.2470 O   0  0  0  0  0  0  0  0  0  0  0  0
  141.7940  137.5410  156.7720 H   0  0  0  0  0  0  0  0  0  0  0  0
  139.0670  138.9250  155.2380 O   0  0  0  0  0  0  0  0  0  0  0  0
  137.8150  138.2970  154.9680 C   0  0  0  0  0  1  0  0  0  0  0  0
  1  3  1  0  0  0  0
  2  1  2  0  0  0  0
  3  4  1  0  0  0  0
  3 15  1  0  0  0  0
  5  1  1  0  0  0  0
  5  6  1  0  0  0  0
  6  7  1  0  0  0  0
  7  8  1  0  0  0  0
  8  9  1  0  0  0  0
  9 10  1  0  0  0  0
 10 11  1  0  0  0  0
 11 12  1  0  0  0  0
 12 14  1  0  0  0  0
 14 13  1  0  0  0  0
 15 16  1  0  0  0  0
 16 17  2  0  0  0  0
 16 21  1  0  0  0  0
 17 18  1  0  0  0  0
 18 19  2  0  0  0  0
 19 22  1  0  0  0  0
 20 19  1  0  0  0  0
 20 24  1  0  0  0  0
 21 20  2  0  0  0  0
 22 23  1  0  0  0  0
 25 24  1  0  0  0  0
M  END
>  <MODEL>
8

>  <REMARK>
 VINA RESULT:    -5.871      6.811      9.257
 INTER + INTRA:         -11.278
 INTER:                 -10.162
 INTRA:                  -1.116
 UNBOUND:                -1.116
  Name = CHEMBL86684
  14 active torsions:
  status: ('A' for Active; 'I' for Inactive)
    1  A    between atoms: C_2  and  C_3
    2  A    between atoms: C_3  and  C_4
    3  A    between atoms: C_4  and  C_5
    4  A    between atoms: C_5  and  C_6
    5  A    between atoms: C_6  and  C_7
    6  A    between atoms: C_7  and  C_8
    7  A    between atoms: C_8  and  C_9
    8  A    between atoms: C_9  and  C_10
    9  A    between atoms: C_10  and  C_11
   10  A    between atoms: N_13  and  C_14
   11  A    between atoms: C_14  and  C_15
   12  A    between atoms: C_18  and  O_19
   13  A    between atoms: C_20  and  O_21
   14  A    between atoms: O_21  and  C_22
                            x       y       z     vdW  Elec       q    Type
                         _______ _______ _______ _____ _____    ______ ____

>  <TORSDO>
F 13

>  <SCORE>
-5.871

>  <RMSD_LB>
6.811

>  <RMSD_UB>
9.257

$$$$
CHEMBL86684
 OpenBabel10162523433D

 25 25  0  0  0  0  0  0  0  0999 V2000
  147.0490  138.9560  147.7710 C   0  0  0  0  0  0  0  0  0  0  0  0
  146.6470  139.6830  146.8780 O   0  0  0  0  0  0  0  0  0  0  0  0
  146.9590  139.3110  149.1010 N   0  0  0  0  0  0  0  0  0  0  0  0
  147.3030  138.7030  149.7950 H   0  0  0  0  0  0  0  0  0  0  0  0
  147.6960  137.6070  147.5030 C   0  0  0  0  0  2  0  0  0  0  0  0
  146.9980  136.5230  148.3220 C   0  0  0  0  0  2  0  0  0  0  0  0
  147.9420  135.8220  149.2870 C   0  0  0  0  0  2  0  0  0  0  0  0
  147.6720  136.2760  150.7180 C   0  0  0  0  0  2  0  0  0  0  0  0
  146.2430  135.9420  151.1140 C   0  0  0  0  0  2  0  0  0  0  0  0
  145.6610  137.0560  151.9670 C   0  0  0  0  0  2  0  0  0  0  0  0
  144.2280  137.3360  151.5510 C   0  0  0  0  0  2  0  0  0  0  0  0
  143.8920  138.7910  151.8090 C   0  0  0  0  0  2  0  0  0  0  0  0
  144.4760  139.4340  154.4960 C   0  0  0  0  0  1  0  0  0  0  0  0
  144.2070  139.1370  153.2550 C   0  0  0  0  0  2  0  0  0  0  0  0
  146.3550  140.5860  149.4830 C   0  0  0  0  0  2  0  0  0  0  0  0
  146.6400  140.9600  150.9180 C   0  0  0  0  0  0  0  0  0  0  0  0
  145.9700  142.0250  151.5390 C   0  0  0  0  0  3  0  0  0  0  0  0
  146.2740  142.3750  152.8560 C   0  0  0  0  0  3  0  0  0  0  0  0
  147.2360  141.6630  153.5720 C   0  0  0  0  0  0  0  0  0  0  0  0
  147.9180  140.5930  152.9730 C   0  0  0  0  0  0  0  0  0  0  0  0
  147.5960  140.2410  151.6520 C   0  0  0  0  0  3  0  0  0  0  0  0
  147.5110  142.0250  154.8600 O   0  0  0  0  0  0  0  0  0  0  0  0
  146.8160  142.1000  155.4830 H   0  0  0  0  0  0  0  0  0  0  0  0
  148.8950  139.8200  153.5520 O   0  0  0  0  0  0  0  0  0  0  0  0
  148.5680  138.4510  153.7790 C   0  0  0  0  0  1  0  0  0  0  0  0
  1  3  1  0  0  0  0
  2  1  2  0  0  0  0
  3 15  1  0  0  0  0
  3  4  1  0  0  0  0
  5  1  1  0  0  0  0
  5  6  1  0  0  0  0
  6  7  1  0  0  0  0
  7  8  1  0  0  0  0
  8  9  1  0  0  0  0
  9 10  1  0  0  0  0
 11 12  1  0  0  0  0
 11 10  1  0  0  0  0
 12 14  1  0  0  0  0
 14 13  1  0  0  0  0
 15 16  1  0  0  0  0
 16 17  2  0  0  0  0
 16 21  1  0  0  0  0
 17 18  1  0  0  0  0
 18 19  2  0  0  0  0
 19 22  1  0  0  0  0
 20 24  1  0  0  0  0
 20 19  1  0  0  0  0
 21 20  2  0  0  0  0
 22 23  1  0  0  0  0
 24 25  1  0  0  0  0
M  END
>  <MODEL>
9

>  <REMARK>
 VINA RESULT:    -5.808      1.922      3.315
 INTER + INTRA:         -11.168
 INTER:                  -8.717
 INTRA:                  -2.450
 UNBOUND:                -1.116
  Name = CHEMBL86684
  14 active torsions:
  status: ('A' for Active; 'I' for Inactive)
    1  A    between atoms: C_2  and  C_3
    2  A    between atoms: C_3  and  C_4
    3  A    between atoms: C_4  and  C_5
    4  A    between atoms: C_5  and  C_6
    5  A    between atoms: C_6  and  C_7
    6  A    between atoms: C_7  and  C_8
    7  A    between atoms: C_8  and  C_9
    8  A    between atoms: C_9  and  C_10
    9  A    between atoms: C_10  and  C_11
   10  A    between atoms: N_13  and  C_14
   11  A    between atoms: C_14  and  C_15
   12  A    between atoms: C_18  and  O_19
   13  A    between atoms: C_20  and  O_21
   14  A    between atoms: O_21  and  C_22
                            x       y       z     vdW  Elec       q    Type
                         _______ _______ _______ _____ _____    ______ ____

>  <TORSDO>
F 13

>  <SCORE>
-5.808

>  <RMSD_LB>
1.922

>  <RMSD_UB>
3.315

$$$$
