CHEMBL3810128
 OpenBabel10172500053D

 26 27  0  0  1  0  0  0  0  0999 V2000
  144.1750  138.6280  150.3350 C   0  0  2  0  0  3  0  0  0  0  0  0
  144.3970  138.8480  148.8270 C   0  0  0  0  0  1  0  0  0  0  0  0
  143.0680  137.5610  150.6200 C   0  0  1  0  0  3  0  0  0  0  0  0
  143.2950  136.2290  149.8880 C   0  0  0  0  0  1  0  0  0  0  0  0
  142.8900  137.2720  152.1410 C   0  0  0  0  0  2  0  0  0  0  0  0
  141.5810  137.7540  152.7270 C   0  0  0  0  0  0  0  0  0  0  0  0
  140.4830  138.0150  151.9020 C   0  0  0  0  0  3  0  0  0  0  0  0
  139.2860  138.4880  152.4410 C   0  0  0  0  0  3  0  0  0  0  0  0
  139.1640  138.6870  153.8190 C   0  0  0  0  0  0  0  0  0  0  0  0
  140.2340  138.3940  154.6700 C   0  0  0  0  0  0  0  0  0  0  0  0
  141.4390  137.9420  154.1110 C   0  0  0  0  0  3  0  0  0  0  0  0
  137.9930  139.2020  154.3010 O   0  0  0  0  0  0  0  0  0  0  0  0
  137.3290  138.6280  154.6290 H   0  0  0  0  0  0  0  0  0  0  0  0
  140.2790  138.5520  156.0320 O   0  0  0  0  0  0  0  0  0  0  0  0
  139.8850  137.4350  156.8200 C   0  0  0  0  0  1  0  0  0  0  0  0
  143.9260  140.0170  150.9810 C   0  0  0  0  0  2  0  0  0  0  0  0
  146.2710  140.2120  153.9990 C   0  0  0  0  0  0  0  0  0  0  0  0
  145.3660  139.7340  153.0420 C   0  0  0  0  0  3  0  0  0  0  0  0
  144.9690  140.5280  151.9560 C   0  0  0  0  0  0  0  0  0  0  0  0
  145.4910  141.8240  151.8460 C   0  0  0  0  0  3  0  0  0  0  0  0
  146.3930  142.3140  152.7970 C   0  0  0  0  0  3  0  0  0  0  0  0
  146.7830  141.5070  153.8650 C   0  0  0  0  0  0  0  0  0  0  0  0
  147.0440  138.1630  154.8900 C   0  0  0  0  0  1  0  0  0  0  0  0
  146.6570  139.5110  155.1130 O   0  0  0  0  0  0  0  0  0  0  0  0
  147.6810  141.9720  154.7860 O   0  0  0  0  0  0  0  0  0  0  0  0
  147.8960  141.4530  155.5350 H   0  0  0  0  0  0  0  0  0  0  0  0
  1  2  1  6  0  0  0
  1  3  1  0  0  0  0
  1 16  1  0  0  0  0
  3  4  1  6  0  0  0
  3  5  1  0  0  0  0
  5  6  1  0  0  0  0
  6 11  1  0  0  0  0
  7  8  1  0  0  0  0
  7  6  2  0  0  0  0
  8  9  2  0  0  0  0
  9 12  1  0  0  0  0
  9 10  1  0  0  0  0
 10 14  1  0  0  0  0
 11 10  2  0  0  0  0
 12 13  1  0  0  0  0
 14 15  1  0  0  0  0
 16 19  1  0  0  0  0
 17 24  1  0  0  0  0
 18 17  2  0  0  0  0
 19 18  1  0  0  0  0
 20 19  2  0  0  0  0
 20 21  1  0  0  0  0
 21 22  2  0  0  0  0
 22 17  1  0  0  0  0
 22 25  1  0  0  0  0
 23 24  1  0  0  0  0
 25 26  1  0  0  0  0
M  END
>  <MODEL>
1

>  <REMARK>
 VINA RESULT:    -6.571      0.000      0.000
 INTER + INTRA:         -12.176
 INTER:                 -10.716
 INTRA:                  -1.460
 UNBOUND:                -2.531
  Name = CHEMBL3810128
  13 active torsions:
  status: ('A' for Active; 'I' for Inactive)
    1  A    between atoms: C_1  and  O_2
    2  A    between atoms: O_2  and  C_3
    3  A    between atoms: C_5  and  C_6
    4  A    between atoms: C_6  and  C_7
    5  A    between atoms: C_7  and  C_8
    6  A    between atoms: C_7  and  C_9
    7  A    between atoms: C_9  and  C_10
    8  A    between atoms: C_9  and  C_11
    9  A    between atoms: C_11  and  C_12
   10  A    between atoms: C_15  and  O_16
   11  A    between atoms: C_17  and  O_18
   12  A    between atoms: O_18  and  C_19
   13  A    between atoms: C_23  and  O_24
                            x       y       z     vdW  Elec       q    Type
                         _______ _______ _______ _____ _____    ______ ____

>  <TORSDO>
F 9

>  <SCORE>
-6.571

>  <RMSD_LB>
0.000

>  <RMSD_UB>
0.000

$$$$
CHEMBL3810128
 OpenBabel10172500053D

 26 27  0  0  1  0  0  0  0  0999 V2000
  135.3290  136.1030  153.3710 C   0  0  2  0  0  3  0  0  0  0  0  0
  133.9150  135.4980  153.4410 C   0  0  0  0  0  1  0  0  0  0  0  0
  135.8730  136.1680  151.9060 C   0  0  1  0  0  3  0  0  0  0  0  0
  137.2490  136.8420  151.7910 C   0  0  0  0  0  1  0  0  0  0  0  0
  135.9440  134.7660  151.2300 C   0  0  0  0  0  2  0  0  0  0  0  0
  134.8410  134.4890  150.2320 C   0  0  0  0  0  0  0  0  0  0  0  0
  134.5350  133.1790  149.8510 C   0  0  0  0  0  3  0  0  0  0  0  0
  133.5380  132.9280  148.9080 C   0  0  0  0  0  3  0  0  0  0  0  0
  132.8180  133.9840  148.3460 C   0  0  0  0  0  0  0  0  0  0  0  0
  133.0750  135.3010  148.7410 C   0  0  0  0  0  0  0  0  0  0  0  0
  134.0970  135.5400  149.6730 C   0  0  0  0  0  3  0  0  0  0  0  0
  131.8860  133.7000  147.3870 O   0  0  0  0  0  0  0  0  0  0  0  0
  131.0500  133.3570  147.6340 H   0  0  0  0  0  0  0  0  0  0  0  0
  132.4720  136.4410  148.2750 O   0  0  0  0  0  0  0  0  0  0  0  0
  133.0590  137.0560  147.1340 C   0  0  0  0  0  1  0  0  0  0  0  0
  136.2250  135.3190  154.3680 C   0  0  0  0  0  2  0  0  0  0  0  0
  136.6670  136.5180  157.9740 C   0  0  0  0  0  0  0  0  0  0  0  0
  136.2560  135.7840  156.8540 C   0  0  0  0  0  3  0  0  0  0  0  0
  136.7490  136.0730  155.5730 C   0  0  0  0  0  0  0  0  0  0  0  0
  137.6640  137.1260  155.4280 C   0  0  0  0  0  3  0  0  0  0  0  0
  138.0800  137.8690  156.5390 C   0  0  0  0  0  3  0  0  0  0  0  0
  137.5850  137.5610  157.8060 C   0  0  0  0  0  0  0  0  0  0  0  0
  136.2520  134.9940  159.7340 C   0  0  0  0  0  1  0  0  0  0  0  0
  136.1830  136.3250  159.2430 O   0  0  0  0  0  0  0  0  0  0  0  0
  138.0040  138.2690  158.8980 O   0  0  0  0  0  0  0  0  0  0  0  0
  137.3930  138.5030  159.5680 H   0  0  0  0  0  0  0  0  0  0  0  0
  1  2  1  6  0  0  0
  1 16  1  0  0  0  0
  3  4  1  1  0  0  0
  3  1  1  0  0  0  0
  5  3  1  0  0  0  0
  6  5  1  0  0  0  0
  7  6  1  0  0  0  0
  8  7  2  0  0  0  0
  9 10  2  0  0  0  0
  9  8  1  0  0  0  0
 10 11  1  0  0  0  0
 11  6  2  0  0  0  0
 12 13  1  0  0  0  0
 12  9  1  0  0  0  0
 14 10  1  0  0  0  0
 15 14  1  0  0  0  0
 16 19  1  0  0  0  0
 17 24  1  0  0  0  0
 18 17  2  0  0  0  0
 19 18  1  0  0  0  0
 20 19  2  0  0  0  0
 20 21  1  0  0  0  0
 21 22  2  0  0  0  0
 22 17  1  0  0  0  0
 22 25  1  0  0  0  0
 24 23  1  0  0  0  0
 25 26  1  0  0  0  0
M  END
>  <MODEL>
2

>  <REMARK>
 VINA RESULT:    -6.529      7.079      9.984
 INTER + INTRA:         -12.114
 INTER:                 -11.009
 INTRA:                  -1.106
 UNBOUND:                -2.531
  Name = CHEMBL3810128
  13 active torsions:
  status: ('A' for Active; 'I' for Inactive)
    1  A    between atoms: C_1  and  O_2
    2  A    between atoms: O_2  and  C_3
    3  A    between atoms: C_5  and  C_6
    4  A    between atoms: C_6  and  C_7
    5  A    between atoms: C_7  and  C_8
    6  A    between atoms: C_7  and  C_9
    7  A    between atoms: C_9  and  C_10
    8  A    between atoms: C_9  and  C_11
    9  A    between atoms: C_11  and  C_12
   10  A    between atoms: C_15  and  O_16
   11  A    between atoms: C_17  and  O_18
   12  A    between atoms: O_18  and  C_19
   13  A    between atoms: C_23  and  O_24
                            x       y       z     vdW  Elec       q    Type
                         _______ _______ _______ _____ _____    ______ ____

>  <TORSDO>
F 9

>  <SCORE>
-6.529

>  <RMSD_LB>
7.079

>  <RMSD_UB>
9.984

$$$$
CHEMBL3810128
 OpenBabel10172500053D

 26 27  0  0  1  0  0  0  0  0999 V2000
  134.8480  135.5870  152.1190 C   0  0  2  0  0  3  0  0  0  0  0  0
  136.2360  135.2760  151.5320 C   0  0  0  0  0  1  0  0  0  0  0  0
  134.9050  135.8690  153.6560 C   0  0  1  0  0  3  0  0  0  0  0  0
  133.6390  135.4270  154.4090 C   0  0  0  0  0  1  0  0  0  0  0  0
  136.1460  135.2200  154.3400 C   0  0  0  0  0  2  0  0  0  0  0  0
  136.7570  136.0430  155.4520 C   0  0  0  0  0  0  0  0  0  0  0  0
  136.3940  135.8250  156.7840 C   0  0  0  0  0  3  0  0  0  0  0  0
  136.9370  136.6060  157.8050 C   0  0  0  0  0  3  0  0  0  0  0  0
  137.8680  137.6050  157.5100 C   0  0  0  0  0  0  0  0  0  0  0  0
  138.2790  137.8150  156.1900 C   0  0  0  0  0  0  0  0  0  0  0  0
  137.7080  137.0380  155.1710 C   0  0  0  0  0  3  0  0  0  0  0  0
  138.3350  138.3830  158.5320 O   0  0  0  0  0  0  0  0  0  0  0  0
  137.7630  138.6280  159.2330 H   0  0  0  0  0  0  0  0  0  0  0  0
  139.1640  138.7600  155.7370 O   0  0  0  0  0  0  0  0  0  0  0  0
  140.2750  138.2890  154.9840 C   0  0  0  0  0  1  0  0  0  0  0  0
  133.8910  134.4380  151.6990 C   0  0  0  0  0  2  0  0  0  0  0  0
  133.1810  134.7540  147.9530 C   0  0  0  0  0  0  0  0  0  0  0  0
  133.3380  135.0610  149.3100 C   0  0  0  0  0  3  0  0  0  0  0  0
  133.8100  134.1060  150.2230 C   0  0  0  0  0  0  0  0  0  0  0  0
  134.1180  132.8220  149.7510 C   0  0  0  0  0  3  0  0  0  0  0  0
  133.9620  132.5020  148.3980 C   0  0  0  0  0  3  0  0  0  0  0  0
  133.5000  133.4680  147.5040 C   0  0  0  0  0  0  0  0  0  0  0  0
  133.5240  136.6950  146.6470 C   0  0  0  0  0  1  0  0  0  0  0  0
  132.6720  135.6210  147.0200 O   0  0  0  0  0  0  0  0  0  0  0  0
  133.3670  133.1680  146.1760 O   0  0  0  0  0  0  0  0  0  0  0  0
  132.6660  133.5410  145.6800 H   0  0  0  0  0  0  0  0  0  0  0  0
  1  2  1  1  0  0  0
  1  3  1  0  0  0  0
  3  5  1  0  0  0  0
  3  4  1  1  0  0  0
  5  6  1  0  0  0  0
  6  7  1  0  0  0  0
  7  8  2  0  0  0  0
  9  8  1  0  0  0  0
  9 12  1  0  0  0  0
 10  9  2  0  0  0  0
 11  6  2  0  0  0  0
 11 10  1  0  0  0  0
 12 13  1  0  0  0  0
 14 10  1  0  0  0  0
 15 14  1  0  0  0  0
 16  1  1  0  0  0  0
 17 18  1  0  0  0  0
 18 19  2  0  0  0  0
 19 16  1  0  0  0  0
 20 19  1  0  0  0  0
 21 20  2  0  0  0  0
 22 17  2  0  0  0  0
 22 21  1  0  0  0  0
 23 24  1  0  0  0  0
 24 17  1  0  0  0  0
 25 22  1  0  0  0  0
 26 25  1  0  0  0  0
M  END
>  <MODEL>
3

>  <REMARK>
 VINA RESULT:    -6.287      6.286     11.152
 INTER + INTRA:         -11.758
 INTER:                 -10.814
 INTRA:                  -0.944
 UNBOUND:                -2.531
  Name = CHEMBL3810128
  13 active torsions:
  status: ('A' for Active; 'I' for Inactive)
    1  A    between atoms: C_1  and  O_2
    2  A    between atoms: O_2  and  C_3
    3  A    between atoms: C_5  and  C_6
    4  A    between atoms: C_6  and  C_7
    5  A    between atoms: C_7  and  C_8
    6  A    between atoms: C_7  and  C_9
    7  A    between atoms: C_9  and  C_10
    8  A    between atoms: C_9  and  C_11
    9  A    between atoms: C_11  and  C_12
   10  A    between atoms: C_15  and  O_16
   11  A    between atoms: C_17  and  O_18
   12  A    between atoms: O_18  and  C_19
   13  A    between atoms: C_23  and  O_24
                            x       y       z     vdW  Elec       q    Type
                         _______ _______ _______ _____ _____    ______ ____

>  <TORSDO>
F 9

>  <SCORE>
-6.287

>  <RMSD_LB>
6.286

>  <RMSD_UB>
11.152

$$$$
CHEMBL3810128
 OpenBabel10172500053D

 26 27  0  0  1  0  0  0  0  0999 V2000
  144.0950  139.0880  149.5890 C   0  0  2  0  0  3  0  0  0  0  0  0
  144.2600  139.6610  148.1700 C   0  0  0  0  0  1  0  0  0  0  0  0
  143.1550  137.8380  149.6180 C   0  0  1  0  0  3  0  0  0  0  0  0
  143.6040  136.7100  148.6750 C   0  0  0  0  0  1  0  0  0  0  0  0
  142.9780  137.2520  151.0510 C   0  0  0  0  0  2  0  0  0  0  0  0
  141.6350  137.5340  151.6870 C   0  0  0  0  0  0  0  0  0  0  0  0
  141.5520  137.9870  153.0070 C   0  0  0  0  0  3  0  0  0  0  0  0
  140.3120  138.2180  153.6020 C   0  0  0  0  0  3  0  0  0  0  0  0
  139.1340  138.0180  152.8770 C   0  0  0  0  0  0  0  0  0  0  0  0
  139.1910  137.6070  151.5410 C   0  0  0  0  0  0  0  0  0  0  0  0
  140.4450  137.3560  150.9640 C   0  0  0  0  0  3  0  0  0  0  0  0
  137.9380  138.2040  153.5130 O   0  0  0  0  0  0  0  0  0  0  0  0
  137.8220  137.8960  154.3900 H   0  0  0  0  0  0  0  0  0  0  0  0
  138.1340  137.3510  150.7060 O   0  0  0  0  0  0  0  0  0  0  0  0
  137.7410  138.4020  149.8300 C   0  0  0  0  0  1  0  0  0  0  0  0
  143.6620  140.2530  150.5200 C   0  0  0  0  0  2  0  0  0  0  0  0
  145.6590  140.3670  153.7810 C   0  0  0  0  0  0  0  0  0  0  0  0
  144.8130  139.9390  152.7510 C   0  0  0  0  0  3  0  0  0  0  0  0
  144.6470  140.6970  151.5830 C   0  0  0  0  0  0  0  0  0  0  0  0
  145.3430  141.9090  151.4650 C   0  0  0  0  0  3  0  0  0  0  0  0
  146.1890  142.3490  152.4890 C   0  0  0  0  0  3  0  0  0  0  0  0
  146.3480  141.5760  153.6390 C   0  0  0  0  0  0  0  0  0  0  0  0
  146.4140  138.4150  154.8820 C   0  0  0  0  0  1  0  0  0  0  0  0
  145.8230  139.7030  154.9710 O   0  0  0  0  0  0  0  0  0  0  0  0
  147.1900  141.9900  154.6340 O   0  0  0  0  0  0  0  0  0  0  0  0
  147.5040  142.8720  154.6460 H   0  0  0  0  0  0  0  0  0  0  0  0
  1  2  1  6  0  0  0
  1  3  1  0  0  0  0
  1 16  1  0  0  0  0
  3  4  1  6  0  0  0
  3  5  1  0  0  0  0
  5  6  1  0  0  0  0
  6  7  1  0  0  0  0
  7  8  2  0  0  0  0
  9 12  1  0  0  0  0
  9  8  1  0  0  0  0
 10  9  2  0  0  0  0
 11 10  1  0  0  0  0
 11  6  2  0  0  0  0
 12 13  1  0  0  0  0
 14 10  1  0  0  0  0
 15 14  1  0  0  0  0
 16 19  1  0  0  0  0
 17 24  1  0  0  0  0
 18 17  2  0  0  0  0
 19 18  1  0  0  0  0
 20 19  2  0  0  0  0
 20 21  1  0  0  0  0
 21 22  2  0  0  0  0
 22 17  1  0  0  0  0
 22 25  1  0  0  0  0
 23 24  1  0  0  0  0
 25 26  1  0  0  0  0
M  END
>  <MODEL>
4

>  <REMARK>
 VINA RESULT:    -6.143      1.316      2.327
 INTER + INTRA:         -11.548
 INTER:                 -10.061
 INTRA:                  -1.487
 UNBOUND:                -2.531
  Name = CHEMBL3810128
  13 active torsions:
  status: ('A' for Active; 'I' for Inactive)
    1  A    between atoms: C_1  and  O_2
    2  A    between atoms: O_2  and  C_3
    3  A    between atoms: C_5  and  C_6
    4  A    between atoms: C_6  and  C_7
    5  A    between atoms: C_7  and  C_8
    6  A    between atoms: C_7  and  C_9
    7  A    between atoms: C_9  and  C_10
    8  A    between atoms: C_9  and  C_11
    9  A    between atoms: C_11  and  C_12
   10  A    between atoms: C_15  and  O_16
   11  A    between atoms: C_17  and  O_18
   12  A    between atoms: O_18  and  C_19
   13  A    between atoms: C_23  and  O_24
                            x       y       z     vdW  Elec       q    Type
                         _______ _______ _______ _____ _____    ______ ____

>  <TORSDO>
F 9

>  <SCORE>
-6.143

>  <RMSD_LB>
1.316

>  <RMSD_UB>
2.327

$$$$
CHEMBL3810128
 OpenBabel10172500053D

 26 27  0  0  1  0  0  0  0  0999 V2000
  136.8460  136.4700  150.7190 C   0  0  2  0  0  3  0  0  0  0  0  0
  137.8840  137.3400  151.4510 C   0  0  0  0  0  1  0  0  0  0  0  0
  135.9930  135.6090  151.7080 C   0  0  1  0  0  3  0  0  0  0  0  0
  136.2380  135.9480  153.1870 C   0  0  0  0  0  1  0  0  0  0  0  0
  134.4650  135.7010  151.4190 C   0  0  0  0  0  2  0  0  0  0  0  0
  134.0120  134.9720  150.1730 C   0  0  0  0  0  0  0  0  0  0  0  0
  134.1540  133.5850  150.0660 C   0  0  0  0  0  3  0  0  0  0  0  0
  133.7640  132.9190  148.9040 C   0  0  0  0  0  3  0  0  0  0  0  0
  133.2050  133.6290  147.8380 C   0  0  0  0  0  0  0  0  0  0  0  0
  133.0140  135.0110  147.9370 C   0  0  0  0  0  0  0  0  0  0  0  0
  133.4320  135.6710  149.1020 C   0  0  0  0  0  3  0  0  0  0  0  0
  132.8860  132.9470  146.6970 O   0  0  0  0  0  0  0  0  0  0  0  0
  133.0380  132.0240  146.6460 H   0  0  0  0  0  0  0  0  0  0  0  0
  132.4990  135.8480  146.9800 O   0  0  0  0  0  0  0  0  0  0  0  0
  132.6010  137.2450  147.2280 C   0  0  0  0  0  1  0  0  0  0  0  0
  137.5960  135.6610  149.6260 C   0  0  0  0  0  2  0  0  0  0  0  0
  136.3160  134.2880  146.2920 C   0  0  0  0  0  0  0  0  0  0  0  0
  136.8270  134.3650  147.5940 C   0  0  0  0  0  3  0  0  0  0  0  0
  136.9630  135.5970  148.2510 C   0  0  0  0  0  0  0  0  0  0  0  0
  136.5820  136.7640  147.5730 C   0  0  0  0  0  3  0  0  0  0  0  0
  136.0730  136.7010  146.2710 C   0  0  0  0  0  3  0  0  0  0  0  0
  135.9370  135.4650  145.6380 C   0  0  0  0  0  0  0  0  0  0  0  0
  136.5270  131.9330  146.2780 C   0  0  0  0  0  1  0  0  0  0  0  0
  136.2100  133.1240  145.5730 O   0  0  0  0  0  0  0  0  0  0  0  0
  135.4210  135.3940  144.3740 O   0  0  0  0  0  0  0  0  0  0  0  0
  134.5910  135.7850  144.1840 H   0  0  0  0  0  0  0  0  0  0  0  0
  1  2  1  1  0  0  0
  1  3  1  0  0  0  0
  3  4  1  1  0  0  0
  5  3  1  0  0  0  0
  6  5  1  0  0  0  0
  7  6  1  0  0  0  0
  8  7  2  0  0  0  0
  9 10  2  0  0  0  0
  9  8  1  0  0  0  0
 10 11  1  0  0  0  0
 11  6  2  0  0  0  0
 12  9  1  0  0  0  0
 13 12  1  0  0  0  0
 14 15  1  0  0  0  0
 14 10  1  0  0  0  0
 16  1  1  0  0  0  0
 17 18  1  0  0  0  0
 18 19  2  0  0  0  0
 19 16  1  0  0  0  0
 20 19  1  0  0  0  0
 21 20  2  0  0  0  0
 22 21  1  0  0  0  0
 22 17  2  0  0  0  0
 24 23  1  0  0  0  0
 24 17  1  0  0  0  0
 25 22  1  0  0  0  0
 26 25  1  0  0  0  0
M  END
>  <MODEL>
5

>  <REMARK>
 VINA RESULT:    -6.140      8.397     11.193
 INTER + INTRA:         -11.543
 INTER:                  -8.900
 INTRA:                  -2.643
 UNBOUND:                -2.531
  Name = CHEMBL3810128
  13 active torsions:
  status: ('A' for Active; 'I' for Inactive)
    1  A    between atoms: C_1  and  O_2
    2  A    between atoms: O_2  and  C_3
    3  A    between atoms: C_5  and  C_6
    4  A    between atoms: C_6  and  C_7
    5  A    between atoms: C_7  and  C_8
    6  A    between atoms: C_7  and  C_9
    7  A    between atoms: C_9  and  C_10
    8  A    between atoms: C_9  and  C_11
    9  A    between atoms: C_11  and  C_12
   10  A    between atoms: C_15  and  O_16
   11  A    between atoms: C_17  and  O_18
   12  A    between atoms: O_18  and  C_19
   13  A    between atoms: C_23  and  O_24
                            x       y       z     vdW  Elec       q    Type
                         _______ _______ _______ _____ _____    ______ ____

>  <TORSDO>
F 9

>  <SCORE>
-6.140

>  <RMSD_LB>
8.397

>  <RMSD_UB>
11.193

$$$$
CHEMBL3810128
 OpenBabel10172500053D

 26 27  0  0  1  0  0  0  0  0999 V2000
  139.1460  138.2700  150.5790 C   0  0  2  0  0  3  0  0  0  0  0  0
  139.2310  139.8030  150.7030 C   0  0  0  0  0  1  0  0  0  0  0  0
  137.6970  137.7830  150.2470 C   0  0  1  0  0  3  0  0  0  0  0  0
  137.1490  138.3410  148.9240 C   0  0  0  0  0  1  0  0  0  0  0  0
  137.5770  136.2300  150.2240 C   0  0  0  0  0  2  0  0  0  0  0  0
  136.5500  135.6610  151.1780 C   0  0  0  0  0  0  0  0  0  0  0  0
  135.8110  134.5240  150.8380 C   0  0  0  0  0  3  0  0  0  0  0  0
  134.8430  134.0200  151.7070 C   0  0  0  0  0  3  0  0  0  0  0  0
  134.6140  134.6340  152.9400 C   0  0  0  0  0  0  0  0  0  0  0  0
  135.3690  135.7480  153.3230 C   0  0  0  0  0  0  0  0  0  0  0  0
  136.3220  136.2580  152.4290 C   0  0  0  0  0  3  0  0  0  0  0  0
  133.6210  134.1400  153.7390 O   0  0  0  0  0  0  0  0  0  0  0  0
  133.8280  133.5350  154.4240 H   0  0  0  0  0  0  0  0  0  0  0  0
  135.2540  136.4700  154.4830 O   0  0  0  0  0  0  0  0  0  0  0  0
  136.1300  136.1170  155.5470 C   0  0  0  0  0  1  0  0  0  0  0  0
  139.7620  137.6600  151.8670 C   0  0  0  0  0  2  0  0  0  0  0  0
  143.4050  137.6250  153.0360 C   0  0  0  0  0  0  0  0  0  0  0  0
  142.0100  137.7520  153.0240 C   0  0  0  0  0  3  0  0  0  0  0  0
  141.2610  137.4340  151.8810 C   0  0  0  0  0  0  0  0  0  0  0  0
  141.9380  136.9910  150.7370 C   0  0  0  0  0  3  0  0  0  0  0  0
  143.3310  136.8630  150.7350 C   0  0  0  0  0  3  0  0  0  0  0  0
  144.0590  137.1750  151.8840 C   0  0  0  0  0  0  0  0  0  0  0  0
  144.4020  139.3640  154.2900 C   0  0  0  0  0  1  0  0  0  0  0  0
  144.2010  137.9710  154.0980 O   0  0  0  0  0  0  0  0  0  0  0  0
  145.4190  137.0310  151.8960 O   0  0  0  0  0  0  0  0  0  0  0  0
  145.8030  136.2270  152.1850 H   0  0  0  0  0  0  0  0  0  0  0  0
  1  2  1  1  0  0  0
  1 16  1  0  0  0  0
  3  4  1  6  0  0  0
  3  1  1  0  0  0  0
  5  3  1  0  0  0  0
  5  6  1  0  0  0  0
  6 11  1  0  0  0  0
  7  6  2  0  0  0  0
  7  8  1  0  0  0  0
  8  9  2  0  0  0  0
  9 10  1  0  0  0  0
  9 12  1  0  0  0  0
 10 14  1  0  0  0  0
 11 10  2  0  0  0  0
 12 13  1  0  0  0  0
 14 15  1  0  0  0  0
 16 19  1  0  0  0  0
 17 24  1  0  0  0  0
 18 17  1  0  0  0  0
 19 18  2  0  0  0  0
 20 19  1  0  0  0  0
 21 20  2  0  0  0  0
 21 22  1  0  0  0  0
 22 25  1  0  0  0  0
 22 17  2  0  0  0  0
 24 23  1  0  0  0  0
 25 26  1  0  0  0  0
M  END
>  <MODEL>
6

>  <REMARK>
 VINA RESULT:    -5.914      3.662      5.442
 INTER + INTRA:         -11.211
 INTER:                 -10.026
 INTRA:                  -1.185
 UNBOUND:                -2.531
  Name = CHEMBL3810128
  13 active torsions:
  status: ('A' for Active; 'I' for Inactive)
    1  A    between atoms: C_1  and  O_2
    2  A    between atoms: O_2  and  C_3
    3  A    between atoms: C_5  and  C_6
    4  A    between atoms: C_6  and  C_7
    5  A    between atoms: C_7  and  C_8
    6  A    between atoms: C_7  and  C_9
    7  A    between atoms: C_9  and  C_10
    8  A    between atoms: C_9  and  C_11
    9  A    between atoms: C_11  and  C_12
   10  A    between atoms: C_15  and  O_16
   11  A    between atoms: C_17  and  O_18
   12  A    between atoms: O_18  and  C_19
   13  A    between atoms: C_23  and  O_24
                            x       y       z     vdW  Elec       q    Type
                         _______ _______ _______ _____ _____    ______ ____

>  <TORSDO>
F 9

>  <SCORE>
-5.914

>  <RMSD_LB>
3.662

>  <RMSD_UB>
5.442

$$$$
CHEMBL3810128
 OpenBabel10172500053D

 26 27  0  0  1  0  0  0  0  0999 V2000
  139.3550  138.2460  150.1790 C   0  0  2  0  0  3  0  0  0  0  0  0
  139.5580  139.7120  150.6000 C   0  0  0  0  0  1  0  0  0  0  0  0
  137.8570  137.8050  150.2750 C   0  0  1  0  0  3  0  0  0  0  0  0
  136.9720  138.3890  149.1630 C   0  0  0  0  0  1  0  0  0  0  0  0
  137.6870  136.2560  150.2880 C   0  0  0  0  0  2  0  0  0  0  0  0
  136.5710  135.7500  151.1750 C   0  0  0  0  0  0  0  0  0  0  0  0
  136.4100  136.2450  152.4730 C   0  0  0  0  0  3  0  0  0  0  0  0
  135.3980  135.7560  153.2990 C   0  0  0  0  0  3  0  0  0  0  0  0
  134.5180  134.7770  152.8310 C   0  0  0  0  0  0  0  0  0  0  0  0
  134.6300  134.2960  151.5230 C   0  0  0  0  0  0  0  0  0  0  0  0
  135.6670  134.7810  150.7110 C   0  0  0  0  0  3  0  0  0  0  0  0
  133.5740  134.2860  153.6900 O   0  0  0  0  0  0  0  0  0  0  0  0
  133.8170  134.0370  154.5600 H   0  0  0  0  0  0  0  0  0  0  0  0
  133.8620  133.3310  150.9240 O   0  0  0  0  0  0  0  0  0  0  0  0
  132.7960  133.7820  150.0960 C   0  0  0  0  0  1  0  0  0  0  0  0
  140.3460  137.3780  151.0010 C   0  0  0  0  0  2  0  0  0  0  0  0
  142.5010  138.6820  153.8810 C   0  0  0  0  0  0  0  0  0  0  0  0
  142.0820  138.2750  152.6080 C   0  0  0  0  0  3  0  0  0  0  0  0
  140.7540  137.8930  152.3670 C   0  0  0  0  0  0  0  0  0  0  0  0
  139.8450  137.9180  153.4330 C   0  0  0  0  0  3  0  0  0  0  0  0
  140.2520  138.3190  154.7100 C   0  0  0  0  0  3  0  0  0  0  0  0
  141.5750  138.7040  154.9290 C   0  0  0  0  0  0  0  0  0  0  0  0
  144.7890  138.5460  153.2970 C   0  0  0  0  0  1  0  0  0  0  0  0
  143.7940  139.0140  154.1970 O   0  0  0  0  0  0  0  0  0  0  0  0
  141.9740  139.1180  156.1690 O   0  0  0  0  0  0  0  0  0  0  0  0
  142.4870  139.8960  156.2610 H   0  0  0  0  0  0  0  0  0  0  0  0
  1  3  1  0  0  0  0
  1  2  1  1  0  0  0
  1 16  1  0  0  0  0
  3  4  1  6  0  0  0
  3  5  1  0  0  0  0
  5  6  1  0  0  0  0
  6  7  1  0  0  0  0
  7  8  2  0  0  0  0
  9  8  1  0  0  0  0
  9 12  1  0  0  0  0
 10  9  2  0  0  0  0
 11  6  2  0  0  0  0
 11 10  1  0  0  0  0
 12 13  1  0  0  0  0
 14 10  1  0  0  0  0
 15 14  1  0  0  0  0
 16 19  1  0  0  0  0
 17 24  1  0  0  0  0
 17 22  1  0  0  0  0
 18 17  2  0  0  0  0
 19 18  1  0  0  0  0
 19 20  2  0  0  0  0
 20 21  1  0  0  0  0
 21 22  2  0  0  0  0
 22 25  1  0  0  0  0
 23 24  1  0  0  0  0
 25 26  1  0  0  0  0
M  END
>  <MODEL>
7

>  <REMARK>
 VINA RESULT:    -5.729      4.090      6.141
 INTER + INTRA:         -10.939
 INTER:                  -9.757
 INTRA:                  -1.183
 UNBOUND:                -2.531
  Name = CHEMBL3810128
  13 active torsions:
  status: ('A' for Active; 'I' for Inactive)
    1  A    between atoms: C_1  and  O_2
    2  A    between atoms: O_2  and  C_3
    3  A    between atoms: C_5  and  C_6
    4  A    between atoms: C_6  and  C_7
    5  A    between atoms: C_7  and  C_8
    6  A    between atoms: C_7  and  C_9
    7  A    between atoms: C_9  and  C_10
    8  A    between atoms: C_9  and  C_11
    9  A    between atoms: C_11  and  C_12
   10  A    between atoms: C_15  and  O_16
   11  A    between atoms: C_17  and  O_18
   12  A    between atoms: O_18  and  C_19
   13  A    between atoms: C_23  and  O_24
                            x       y       z     vdW  Elec       q    Type
                         _______ _______ _______ _____ _____    ______ ____

>  <TORSDO>
F 9

>  <SCORE>
-5.729

>  <RMSD_LB>
4.090

>  <RMSD_UB>
6.141

$$$$
CHEMBL3810128
 OpenBabel10172500053D

 26 27  0  0  1  0  0  0  0  0999 V2000
  141.7070  138.2900  153.0070 C   0  0  2  0  0  3  0  0  0  0  0  0
  140.4100  138.5230  153.8040 C   0  0  0  0  0  1  0  0  0  0  0  0
  141.4470  137.5360  151.6620 C   0  0  1  0  0  3  0  0  0  0  0  0
  139.9570  137.3950  151.3140 C   0  0  0  0  0  1  0  0  0  0  0  0
  142.1840  138.1920  150.4550 C   0  0  0  0  0  2  0  0  0  0  0  0
  143.5980  137.7020  150.2360 C   0  0  0  0  0  0  0  0  0  0  0  0
  143.9060  136.3420  150.3390 C   0  0  0  0  0  3  0  0  0  0  0  0
  145.2170  135.8960  150.1670 C   0  0  0  0  0  3  0  0  0  0  0  0
  146.2360  136.8030  149.8680 C   0  0  0  0  0  0  0  0  0  0  0  0
  145.9470  138.1630  149.7170 C   0  0  0  0  0  0  0  0  0  0  0  0
  144.6290  138.6000  149.9170 C   0  0  0  0  0  3  0  0  0  0  0  0
  147.5160  136.3320  149.7590 O   0  0  0  0  0  0  0  0  0  0  0  0
  147.8890  135.8260  150.4540 H   0  0  0  0  0  0  0  0  0  0  0  0
  146.8320  139.1740  149.4440 O   0  0  0  0  0  0  0  0  0  0  0  0
  146.2780  140.4610  149.1930 C   0  0  0  0  0  1  0  0  0  0  0  0
  142.7250  137.6020  153.9570 C   0  0  0  0  0  2  0  0  0  0  0  0
  145.9200  139.5630  153.1910 C   0  0  0  0  0  0  0  0  0  0  0  0
  144.5800  139.2450  153.4500 C   0  0  0  0  0  3  0  0  0  0  0  0
  144.1910  137.9340  153.7630 C   0  0  0  0  0  0  0  0  0  0  0  0
  145.1720  136.9340  153.8050 C   0  0  0  0  0  3  0  0  0  0  0  0
  146.5130  137.2380  153.5450 C   0  0  0  0  0  3  0  0  0  0  0  0
  146.8830  138.5490  153.2440 C   0  0  0  0  0  0  0  0  0  0  0  0
  146.3700  141.7870  153.8540 C   0  0  0  0  0  1  0  0  0  0  0  0
  146.3600  140.8090  152.8240 O   0  0  0  0  0  0  0  0  0  0  0  0
  148.1950  138.8570  153.0100 O   0  0  0  0  0  0  0  0  0  0  0  0
  148.8370  138.1760  152.9770 H   0  0  0  0  0  0  0  0  0  0  0  0
  1  2  1  1  0  0  0
  1 16  1  0  0  0  0
  3  4  1  6  0  0  0
  3  1  1  0  0  0  0
  5  3  1  0  0  0  0
  6  7  1  0  0  0  0
  6  5  1  0  0  0  0
  8  7  2  0  0  0  0
  9  8  1  0  0  0  0
 10  9  2  0  0  0  0
 10 11  1  0  0  0  0
 11  6  2  0  0  0  0
 12  9  1  0  0  0  0
 12 13  1  0  0  0  0
 14 10  1  0  0  0  0
 15 14  1  0  0  0  0
 17 22  2  0  0  0  0
 17 18  1  0  0  0  0
 18 19  2  0  0  0  0
 19 20  1  0  0  0  0
 19 16  1  0  0  0  0
 21 20  2  0  0  0  0
 22 21  1  0  0  0  0
 24 17  1  0  0  0  0
 24 23  1  0  0  0  0
 25 22  1  0  0  0  0
 26 25  1  0  0  0  0
M  END
>  <MODEL>
8

>  <REMARK>
 VINA RESULT:    -5.689      2.759      5.579
 INTER + INTRA:         -10.881
 INTER:                  -8.189
 INTRA:                  -2.692
 UNBOUND:                -2.531
  Name = CHEMBL3810128
  13 active torsions:
  status: ('A' for Active; 'I' for Inactive)
    1  A    between atoms: C_1  and  O_2
    2  A    between atoms: O_2  and  C_3
    3  A    between atoms: C_5  and  C_6
    4  A    between atoms: C_6  and  C_7
    5  A    between atoms: C_7  and  C_8
    6  A    between atoms: C_7  and  C_9
    7  A    between atoms: C_9  and  C_10
    8  A    between atoms: C_9  and  C_11
    9  A    between atoms: C_11  and  C_12
   10  A    between atoms: C_15  and  O_16
   11  A    between atoms: C_17  and  O_18
   12  A    between atoms: O_18  and  C_19
   13  A    between atoms: C_23  and  O_24
                            x       y       z     vdW  Elec       q    Type
                         _______ _______ _______ _____ _____    ______ ____

>  <TORSDO>
F 9

>  <SCORE>
-5.689

>  <RMSD_LB>
2.759

>  <RMSD_UB>
5.579

$$$$
CHEMBL3810128
 OpenBabel10172500053D

 26 27  0  0  1  0  0  0  0  0999 V2000
  135.3420  139.0860  144.6820 C   0  0  2  0  0  3  0  0  0  0  0  0
  135.8490  140.0040  143.5540 C   0  0  0  0  0  1  0  0  0  0  0  0
  133.8210  139.2980  144.9780 C   0  0  1  0  0  3  0  0  0  0  0  0
  133.1610  140.3570  144.0810 C   0  0  0  0  0  1  0  0  0  0  0  0
  133.0010  137.9760  144.8790 C   0  0  0  0  0  2  0  0  0  0  0  0
  133.2300  137.0030  146.0140 C   0  0  0  0  0  0  0  0  0  0  0  0
  132.7460  137.2770  147.2970 C   0  0  0  0  0  3  0  0  0  0  0  0
  132.9850  136.3930  148.3500 C   0  0  0  0  0  3  0  0  0  0  0  0
  133.6950  135.2100  148.1290 C   0  0  0  0  0  0  0  0  0  0  0  0
  134.1530  134.8930  146.8460 C   0  0  0  0  0  0  0  0  0  0  0  0
  133.9260  135.8020  145.8030 C   0  0  0  0  0  3  0  0  0  0  0  0
  133.9530  134.3960  149.1970 O   0  0  0  0  0  0  0  0  0  0  0  0
  133.4730  134.5050  149.9950 H   0  0  0  0  0  0  0  0  0  0  0  0
  134.8750  133.7880  146.4720 O   0  0  0  0  0  0  0  0  0  0  0  0
  134.6190  133.2640  145.1750 C   0  0  0  0  0  1  0  0  0  0  0  0
  136.2800  139.2820  145.9040 C   0  0  0  0  0  2  0  0  0  0  0  0
  136.8160  136.8870  148.8390 C   0  0  0  0  0  0  0  0  0  0  0  0
  136.4070  137.9850  148.0730 C   0  0  0  0  0  3  0  0  0  0  0  0
  136.6590  138.0450  146.6940 C   0  0  0  0  0  0  0  0  0  0  0  0
  137.3420  136.9800  146.0900 C   0  0  0  0  0  3  0  0  0  0  0  0
  137.7590  135.8790  146.8450 C   0  0  0  0  0  3  0  0  0  0  0  0
  137.4910  135.8330  148.2140 C   0  0  0  0  0  0  0  0  0  0  0  0
  137.6240  137.4620  150.9850 C   0  0  0  0  0  1  0  0  0  0  0  0
  136.6520  136.7900  150.1980 O   0  0  0  0  0  0  0  0  0  0  0  0
  137.8770  134.7490  148.9530 O   0  0  0  0  0  0  0  0  0  0  0  0
  138.6430  134.2670  148.7140 H   0  0  0  0  0  0  0  0  0  0  0  0
  1  2  1  6  0  0  0
  1  3  1  0  0  0  0
  1 16  1  0  0  0  0
  3  4  1  6  0  0  0
  5  3  1  0  0  0  0
  5  6  1  0  0  0  0
  6  7  1  0  0  0  0
  7  8  2  0  0  0  0
  9  8  1  0  0  0  0
  9 12  1  0  0  0  0
 10  9  2  0  0  0  0
 11  6  2  0  0  0  0
 11 10  1  0  0  0  0
 12 13  1  0  0  0  0
 14 10  1  0  0  0  0
 15 14  1  0  0  0  0
 16 19  1  0  0  0  0
 17 24  1  0  0  0  0
 18 17  2  0  0  0  0
 19 18  1  0  0  0  0
 20 19  2  0  0  0  0
 20 21  1  0  0  0  0
 21 22  2  0  0  0  0
 22 17  1  0  0  0  0
 22 25  1  0  0  0  0
 24 23  1  0  0  0  0
 26 25  1  0  0  0  0
M  END
>  <MODEL>
9

>  <REMARK>
 VINA RESULT:    -5.662      7.864     10.927
 INTER + INTRA:         -10.841
 INTER:                  -8.309
 INTRA:                  -2.531
 UNBOUND:                -2.531
  Name = CHEMBL3810128
  13 active torsions:
  status: ('A' for Active; 'I' for Inactive)
    1  A    between atoms: C_1  and  O_2
    2  A    between atoms: O_2  and  C_3
    3  A    between atoms: C_5  and  C_6
    4  A    between atoms: C_6  and  C_7
    5  A    between atoms: C_7  and  C_8
    6  A    between atoms: C_7  and  C_9
    7  A    between atoms: C_9  and  C_10
    8  A    between atoms: C_9  and  C_11
    9  A    between atoms: C_11  and  C_12
   10  A    between atoms: C_15  and  O_16
   11  A    between atoms: C_17  and  O_18
   12  A    between atoms: O_18  and  C_19
   13  A    between atoms: C_23  and  O_24
                            x       y       z     vdW  Elec       q    Type
                         _______ _______ _______ _____ _____    ______ ____

>  <TORSDO>
F 9

>  <SCORE>
-5.662

>  <RMSD_LB>
7.864

>  <RMSD_UB>
10.927

$$$$
