CHEMBL77389
 OpenBabel10172500103D

 23 23  0  0  0  0  0  0  0  0999 V2000
  138.0060  138.1460  155.6890 C   0  0  0  0  0  0  0  0  0  0  0  0
  137.2900  138.9160  155.0480 O   0  0  0  0  0  0  0  0  0  0  0  0
  139.3900  138.1650  155.5720 N   0  0  0  0  0  0  0  0  0  0  0  0
  140.3080  137.4040  156.4070 C   0  0  0  0  0  1  0  0  0  0  0  0
  137.4090  137.1330  156.6610 C   0  0  0  0  0  2  0  0  0  0  0  0
  137.0390  135.8010  156.0050 C   0  0  0  0  0  2  0  0  0  0  0  0
  135.5300  135.5410  156.0310 C   0  0  0  0  0  2  0  0  0  0  0  0
  134.8970  135.8220  154.6700 C   0  0  0  0  0  2  0  0  0  0  0  0
  135.8980  135.5620  153.5450 C   0  0  0  0  0  2  0  0  0  0  0  0
  135.6780  134.1840  152.9270 C   0  0  0  0  0  2  0  0  0  0  0  0
  133.9810  133.5780  151.1770 C   0  0  0  0  0  1  0  0  0  0  0  0
  135.2920  134.2940  151.4530 C   0  0  0  0  0  2  0  0  0  0  0  0
  139.9860  139.0910  154.6110 C   0  0  0  0  0  2  0  0  0  0  0  0
  140.4470  138.3960  153.3490 C   0  0  0  0  0  0  0  0  0  0  0  0
  141.7850  138.0230  153.1870 C   0  0  0  0  0  3  0  0  0  0  0  0
  142.2010  137.3770  152.0200 C   0  0  0  0  0  3  0  0  0  0  0  0
  141.2880  137.1130  150.9930 C   0  0  0  0  0  0  0  0  0  0  0  0
  139.9480  137.4950  151.1260 C   0  0  0  0  0  0  0  0  0  0  0  0
  139.5430  138.1250  152.3130 C   0  0  0  0  0  3  0  0  0  0  0  0
  141.7390  136.4690  149.8750 O   0  0  0  0  0  0  0  0  0  0  0  0
  142.5090  136.7760  149.4370 H   0  0  0  0  0  0  0  0  0  0  0  0
  138.9200  137.3350  150.2360 O   0  0  0  0  0  0  0  0  0  0  0  0
  137.6160  137.1220  150.7540 C   0  0  0  0  0  1  0  0  0  0  0  0
  1  5  1  0  0  0  0
  2  1  2  0  0  0  0
  3  1  1  0  0  0  0
  3  4  1  0  0  0  0
  6  7  1  0  0  0  0
  6  5  1  0  0  0  0
  8  7  1  0  0  0  0
  9  8  1  0  0  0  0
 10  9  1  0  0  0  0
 11 12  1  0  0  0  0
 12 10  1  0  0  0  0
 13  3  1  0  0  0  0
 14 13  1  0  0  0  0
 15 14  1  0  0  0  0
 16 15  2  0  0  0  0
 17 18  2  0  0  0  0
 17 16  1  0  0  0  0
 18 19  1  0  0  0  0
 19 14  2  0  0  0  0
 20 17  1  0  0  0  0
 21 20  1  0  0  0  0
 22 23  1  0  0  0  0
 22 18  1  0  0  0  0
M  END
>  <MODEL>
1

>  <REMARK>
 VINA RESULT:    -6.273      0.000      0.000
 INTER + INTRA:         -10.956
 INTER:                  -9.814
 INTRA:                  -1.142
 UNBOUND:                -0.833
  Name = CHEMBL77389
  14 active torsions:
  status: ('A' for Active; 'I' for Inactive)
    1  A    between atoms: C_1  and  C_2
    2  A    between atoms: C_2  and  C_3
    3  A    between atoms: C_3  and  C_4
    4  A    between atoms: C_4  and  C_5
    5  A    between atoms: C_5  and  C_6
    6  A    between atoms: C_6  and  C_7
    7  A    between atoms: C_7  and  C_8
    8  A    between atoms: C_8  and  C_9
    9  A    between atoms: N_11  and  C_12
   10  A    between atoms: N_11  and  C_13
   11  A    between atoms: C_13  and  C_14
   12  A    between atoms: C_17  and  O_18
   13  A    between atoms: C_19  and  O_20
   14  A    between atoms: O_20  and  C_21
                            x       y       z     vdW  Elec       q    Type
                         _______ _______ _______ _____ _____    ______ ____

>  <TORSDO>
F 11

>  <SCORE>
-6.273

>  <RMSD_LB>
0.000

>  <RMSD_UB>
0.000

$$$$
CHEMBL77389
 OpenBabel10172500103D

 23 23  0  0  0  0  0  0  0  0999 V2000
  134.3310  135.3250  153.4640 C   0  0  0  0  0  0  0  0  0  0  0  0
  133.2010  135.1530  153.9260 O   0  0  0  0  0  0  0  0  0  0  0  0
  134.5290  135.8870  152.2090 N   0  0  0  0  0  0  0  0  0  0  0  0
  135.8230  136.2670  151.6610 C   0  0  0  0  0  1  0  0  0  0  0  0
  135.5770  134.9380  154.2530 C   0  0  0  0  0  2  0  0  0  0  0  0
  135.4530  135.1970  155.7560 C   0  0  0  0  0  2  0  0  0  0  0  0
  136.6900  135.8950  156.3280 C   0  0  0  0  0  2  0  0  0  0  0  0
  136.8420  137.3040  155.7600 C   0  0  0  0  0  2  0  0  0  0  0  0
  138.2680  137.5330  155.2590 C   0  0  0  0  0  2  0  0  0  0  0  0
  139.2420  137.6690  156.4260 C   0  0  0  0  0  2  0  0  0  0  0  0
  140.7670  138.5930  154.6570 C   0  0  0  0  0  1  0  0  0  0  0  0
  140.6840  137.7750  155.9340 C   0  0  0  0  0  2  0  0  0  0  0  0
  133.3510  136.2210  151.4110 C   0  0  0  0  0  2  0  0  0  0  0  0
  133.2500  135.3860  150.1540 C   0  0  0  0  0  0  0  0  0  0  0  0
  132.9820  134.0150  150.2250 C   0  0  0  0  0  3  0  0  0  0  0  0
  132.8870  133.2520  149.0590 C   0  0  0  0  0  3  0  0  0  0  0  0
  133.0770  133.8460  147.8070 C   0  0  0  0  0  0  0  0  0  0  0  0
  133.3670  135.2130  147.7120 C   0  0  0  0  0  0  0  0  0  0  0  0
  133.4390  135.9680  148.8920 C   0  0  0  0  0  3  0  0  0  0  0  0
  132.9640  133.0620  146.6930 O   0  0  0  0  0  0  0  0  0  0  0  0
  133.0770  132.1340  146.7610 H   0  0  0  0  0  0  0  0  0  0  0  0
  133.5930  135.9640  146.5900 O   0  0  0  0  0  0  0  0  0  0  0  0
  132.7070  137.0380  146.3160 C   0  0  0  0  0  1  0  0  0  0  0  0
  1  2  2  0  0  0  0
  1  5  1  0  0  0  0
  3  1  1  0  0  0  0
  4  3  1  0  0  0  0
  5  6  1  0  0  0  0
  6  7  1  0  0  0  0
  8  7  1  0  0  0  0
  9  8  1  0  0  0  0
  9 10  1  0  0  0  0
 11 12  1  0  0  0  0
 12 10  1  0  0  0  0
 13  3  1  0  0  0  0
 14 15  1  0  0  0  0
 14 13  1  0  0  0  0
 16 15  2  0  0  0  0
 17 16  1  0  0  0  0
 18 17  2  0  0  0  0
 18 19  1  0  0  0  0
 19 14  2  0  0  0  0
 20 21  1  0  0  0  0
 20 17  1  0  0  0  0
 22 18  1  0  0  0  0
 23 22  1  0  0  0  0
M  END
>  <MODEL>
2

>  <REMARK>
 VINA RESULT:    -6.167      3.630      7.068
 INTER + INTRA:         -10.786
 INTER:                  -9.991
 INTRA:                  -0.795
 UNBOUND:                -0.833
  Name = CHEMBL77389
  14 active torsions:
  status: ('A' for Active; 'I' for Inactive)
    1  A    between atoms: C_1  and  C_2
    2  A    between atoms: C_2  and  C_3
    3  A    between atoms: C_3  and  C_4
    4  A    between atoms: C_4  and  C_5
    5  A    between atoms: C_5  and  C_6
    6  A    between atoms: C_6  and  C_7
    7  A    between atoms: C_7  and  C_8
    8  A    between atoms: C_8  and  C_9
    9  A    between atoms: N_11  and  C_12
   10  A    between atoms: N_11  and  C_13
   11  A    between atoms: C_13  and  C_14
   12  A    between atoms: C_17  and  O_18
   13  A    between atoms: C_19  and  O_20
   14  A    between atoms: O_20  and  C_21
                            x       y       z     vdW  Elec       q    Type
                         _______ _______ _______ _____ _____    ______ ____

>  <TORSDO>
F 11

>  <SCORE>
-6.167

>  <RMSD_LB>
3.630

>  <RMSD_UB>
7.068

$$$$
CHEMBL77389
 OpenBabel10172500103D

 23 23  0  0  0  0  0  0  0  0999 V2000
  145.0270  139.0780  151.1940 C   0  0  0  0  0  0  0  0  0  0  0  0
  145.4000  138.9790  152.3640 O   0  0  0  0  0  0  0  0  0  0  0  0
  144.0330  138.2610  150.6720 N   0  0  0  0  0  0  0  0  0  0  0  0
  143.4280  138.4200  149.3580 C   0  0  0  0  0  1  0  0  0  0  0  0
  145.6320  140.1170  150.2550 C   0  0  0  0  0  2  0  0  0  0  0  0
  145.1370  141.5410  150.5180 C   0  0  0  0  0  2  0  0  0  0  0  0
  146.2090  142.5920  150.2200 C   0  0  0  0  0  2  0  0  0  0  0  0
  147.5660  142.1730  150.7790 C   0  0  0  0  0  2  0  0  0  0  0  0
  147.5460  142.1850  152.3070 C   0  0  0  0  0  2  0  0  0  0  0  0
  148.7490  141.4350  152.8750 C   0  0  0  0  0  2  0  0  0  0  0  0
  148.3610  139.6070  154.5540 C   0  0  0  0  0  1  0  0  0  0  0  0
  148.5460  141.1010  154.3510 C   0  0  0  0  0  2  0  0  0  0  0  0
  143.4710  137.2250  151.5360 C   0  0  0  0  0  2  0  0  0  0  0  0
  142.1530  137.6400  152.1520 C   0  0  0  0  0  0  0  0  0  0  0  0
  140.9420  137.3540  151.5130 C   0  0  0  0  0  3  0  0  0  0  0  0
  139.7300  137.7370  152.0920 C   0  0  0  0  0  3  0  0  0  0  0  0
  139.7140  138.4290  153.3080 C   0  0  0  0  0  0  0  0  0  0  0  0
  140.9140  138.7440  153.9560 C   0  0  0  0  0  0  0  0  0  0  0  0
  142.1220  138.3330  153.3710 C   0  0  0  0  0  3  0  0  0  0  0  0
  138.5040  138.7740  153.8410 O   0  0  0  0  0  0  0  0  0  0  0  0
  138.2950  139.6760  153.9840 H   0  0  0  0  0  0  0  0  0  0  0  0
  141.1000  139.4160  155.1340 O   0  0  0  0  0  0  0  0  0  0  0  0
  142.4310  139.6160  155.5850 C   0  0  0  0  0  1  0  0  0  0  0  0
  1  2  2  0  0  0  0
  3  1  1  0  0  0  0
  3 13  1  0  0  0  0
  4  3  1  0  0  0  0
  5  6  1  0  0  0  0
  5  1  1  0  0  0  0
  7  6  1  0  0  0  0
  7  8  1  0  0  0  0
  8  9  1  0  0  0  0
  9 10  1  0  0  0  0
 10 12  1  0  0  0  0
 12 11  1  0  0  0  0
 13 14  1  0  0  0  0
 14 19  1  0  0  0  0
 15 16  1  0  0  0  0
 15 14  2  0  0  0  0
 16 17  2  0  0  0  0
 17 20  1  0  0  0  0
 17 18  1  0  0  0  0
 18 22  1  0  0  0  0
 19 18  2  0  0  0  0
 20 21  1  0  0  0  0
 22 23  1  0  0  0  0
M  END
>  <MODEL>
3

>  <REMARK>
 VINA RESULT:    -6.079      4.705      9.496
 INTER + INTRA:         -10.644
 INTER:                  -9.819
 INTRA:                  -0.825
 UNBOUND:                -0.833
  Name = CHEMBL77389
  14 active torsions:
  status: ('A' for Active; 'I' for Inactive)
    1  A    between atoms: C_1  and  C_2
    2  A    between atoms: C_2  and  C_3
    3  A    between atoms: C_3  and  C_4
    4  A    between atoms: C_4  and  C_5
    5  A    between atoms: C_5  and  C_6
    6  A    between atoms: C_6  and  C_7
    7  A    between atoms: C_7  and  C_8
    8  A    between atoms: C_8  and  C_9
    9  A    between atoms: N_11  and  C_12
   10  A    between atoms: N_11  and  C_13
   11  A    between atoms: C_13  and  C_14
   12  A    between atoms: C_17  and  O_18
   13  A    between atoms: C_19  and  O_20
   14  A    between atoms: O_20  and  C_21
                            x       y       z     vdW  Elec       q    Type
                         _______ _______ _______ _____ _____    ______ ____

>  <TORSDO>
F 11

>  <SCORE>
-6.079

>  <RMSD_LB>
4.705

>  <RMSD_UB>
9.496

$$$$
CHEMBL77389
 OpenBabel10172500103D

 23 23  0  0  0  0  0  0  0  0999 V2000
  144.5330  138.9440  150.7240 C   0  0  0  0  0  0  0  0  0  0  0  0
  143.8640  138.8070  149.6980 O   0  0  0  0  0  0  0  0  0  0  0  0
  144.2830  138.1920  151.8640 N   0  0  0  0  0  0  0  0  0  0  0  0
  145.1220  138.1780  153.0540 C   0  0  0  0  0  1  0  0  0  0  0  0
  145.6840  139.9420  150.7920 C   0  0  0  0  0  2  0  0  0  0  0  0
  145.2310  141.4030  150.7340 C   0  0  0  0  0  2  0  0  0  0  0  0
  146.1550  142.3290  151.5290 C   0  0  0  0  0  2  0  0  0  0  0  0
  147.6030  142.1970  151.0640 C   0  0  0  0  0  2  0  0  0  0  0  0
  148.5190  141.8590  152.2400 C   0  0  0  0  0  2  0  0  0  0  0  0
  147.7620  141.9440  153.5630 C   0  0  0  0  0  2  0  0  0  0  0  0
  148.6040  139.5770  153.5660 C   0  0  0  0  0  1  0  0  0  0  0  0
  147.6900  140.5810  154.2490 C   0  0  0  0  0  2  0  0  0  0  0  0
  143.1550  137.2630  151.8420 C   0  0  0  0  0  2  0  0  0  0  0  0
  141.8940  137.8740  152.4130 C   0  0  0  0  0  0  0  0  0  0  0  0
  141.6860  137.9250  153.7950 C   0  0  0  0  0  3  0  0  0  0  0  0
  140.5210  138.4950  154.3130 C   0  0  0  0  0  3  0  0  0  0  0  0
  139.5400  139.0050  153.4550 C   0  0  0  0  0  0  0  0  0  0  0  0
  139.7180  138.9470  152.0680 C   0  0  0  0  0  0  0  0  0  0  0  0
  140.9030  138.3890  151.5650 C   0  0  0  0  0  3  0  0  0  0  0  0
  138.4220  139.5630  154.0090 O   0  0  0  0  0  0  0  0  0  0  0  0
  137.7170  139.8420  153.4580 H   0  0  0  0  0  0  0  0  0  0  0  0
  138.8770  139.3790  151.0780 O   0  0  0  0  0  0  0  0  0  0  0  0
  139.2770  140.4980  150.3030 C   0  0  0  0  0  1  0  0  0  0  0  0
  1  5  1  0  0  0  0
  1  3  1  0  0  0  0
  2  1  2  0  0  0  0
  3  4  1  0  0  0  0
  6  5  1  0  0  0  0
  6  7  1  0  0  0  0
  8  7  1  0  0  0  0
  8  9  1  0  0  0  0
  9 10  1  0  0  0  0
 10 12  1  0  0  0  0
 11 12  1  0  0  0  0
 13  3  1  0  0  0  0
 13 14  1  0  0  0  0
 14 15  1  0  0  0  0
 15 16  2  0  0  0  0
 17 20  1  0  0  0  0
 17 16  1  0  0  0  0
 18 17  2  0  0  0  0
 19 18  1  0  0  0  0
 19 14  2  0  0  0  0
 21 20  1  0  0  0  0
 22 18  1  0  0  0  0
 23 22  1  0  0  0  0
M  END
>  <MODEL>
4

>  <REMARK>
 VINA RESULT:    -5.991      4.444      9.088
 INTER + INTRA:         -10.501
 INTER:                  -9.331
 INTRA:                  -1.170
 UNBOUND:                -0.833
  Name = CHEMBL77389
  14 active torsions:
  status: ('A' for Active; 'I' for Inactive)
    1  A    between atoms: C_1  and  C_2
    2  A    between atoms: C_2  and  C_3
    3  A    between atoms: C_3  and  C_4
    4  A    between atoms: C_4  and  C_5
    5  A    between atoms: C_5  and  C_6
    6  A    between atoms: C_6  and  C_7
    7  A    between atoms: C_7  and  C_8
    8  A    between atoms: C_8  and  C_9
    9  A    between atoms: N_11  and  C_12
   10  A    between atoms: N_11  and  C_13
   11  A    between atoms: C_13  and  C_14
   12  A    between atoms: C_17  and  O_18
   13  A    between atoms: C_19  and  O_20
   14  A    between atoms: O_20  and  C_21
                            x       y       z     vdW  Elec       q    Type
                         _______ _______ _______ _____ _____    ______ ____

>  <TORSDO>
F 11

>  <SCORE>
-5.991

>  <RMSD_LB>
4.444

>  <RMSD_UB>
9.088

$$$$
CHEMBL77389
 OpenBabel10172500103D

 23 23  0  0  0  0  0  0  0  0999 V2000
  135.5010  132.9030  145.2850 C   0  0  0  0  0  0  0  0  0  0  0  0
  134.4010  132.4650  144.9420 O   0  0  0  0  0  0  0  0  0  0  0  0
  135.8350  133.0760  146.6220 N   0  0  0  0  0  0  0  0  0  0  0  0
  137.1590  133.4340  147.1110 C   0  0  0  0  0  1  0  0  0  0  0  0
  136.5630  133.2700  144.2540 C   0  0  0  0  0  2  0  0  0  0  0  0
  136.4320  132.4970  142.9400 C   0  0  0  0  0  2  0  0  0  0  0  0
  137.7890  132.2450  142.2770 C   0  0  0  0  0  2  0  0  0  0  0  0
  138.1050  133.3170  141.2370 C   0  0  0  0  0  2  0  0  0  0  0  0
  136.8270  133.7860  140.5410 C   0  0  0  0  0  2  0  0  0  0  0  0
  137.0060  135.1830  139.9540 C   0  0  0  0  0  2  0  0  0  0  0  0
  135.8460  136.1370  141.9680 C   0  0  0  0  0  1  0  0  0  0  0  0
  135.9210  136.1360  140.4500 C   0  0  0  0  0  2  0  0  0  0  0  0
  134.8180  132.7790  147.6290 C   0  0  0  0  0  2  0  0  0  0  0  0
  134.1660  134.0300  148.1750 C   0  0  0  0  0  0  0  0  0  0  0  0
  134.2450  134.3410  149.5370 C   0  0  0  0  0  3  0  0  0  0  0  0
  133.6430  135.5000  150.0320 C   0  0  0  0  0  3  0  0  0  0  0  0
  132.9400  136.3540  149.1760 C   0  0  0  0  0  0  0  0  0  0  0  0
  132.8310  136.0530  147.8130 C   0  0  0  0  0  0  0  0  0  0  0  0
  133.4590  134.8950  147.3290 C   0  0  0  0  0  3  0  0  0  0  0  0
  132.3780  137.4830  149.7040 O   0  0  0  0  0  0  0  0  0  0  0  0
  131.7720  137.9860  149.1960 H   0  0  0  0  0  0  0  0  0  0  0  0
  132.1830  136.7520  146.8310 O   0  0  0  0  0  0  0  0  0  0  0  0
  132.9520  137.6200  146.0110 C   0  0  0  0  0  1  0  0  0  0  0  0
  1  3  1  0  0  0  0
  2  1  2  0  0  0  0
  3  4  1  0  0  0  0
  3 13  1  0  0  0  0
  5  1  1  0  0  0  0
  6  5  1  0  0  0  0
  7  6  1  0  0  0  0
  8  7  1  0  0  0  0
  9  8  1  0  0  0  0
 10 12  1  0  0  0  0
 10  9  1  0  0  0  0
 12 11  1  0  0  0  0
 13 14  1  0  0  0  0
 14 15  1  0  0  0  0
 15 16  2  0  0  0  0
 17 20  1  0  0  0  0
 17 16  1  0  0  0  0
 18 17  2  0  0  0  0
 19 18  1  0  0  0  0
 19 14  2  0  0  0  0
 21 20  1  0  0  0  0
 22 18  1  0  0  0  0
 23 22  1  0  0  0  0
M  END
>  <MODEL>
5

>  <REMARK>
 VINA RESULT:    -5.911      7.488     10.887
 INTER + INTRA:         -10.372
 INTER:                  -9.342
 INTRA:                  -1.031
 UNBOUND:                -0.833
  Name = CHEMBL77389
  14 active torsions:
  status: ('A' for Active; 'I' for Inactive)
    1  A    between atoms: C_1  and  C_2
    2  A    between atoms: C_2  and  C_3
    3  A    between atoms: C_3  and  C_4
    4  A    between atoms: C_4  and  C_5
    5  A    between atoms: C_5  and  C_6
    6  A    between atoms: C_6  and  C_7
    7  A    between atoms: C_7  and  C_8
    8  A    between atoms: C_8  and  C_9
    9  A    between atoms: N_11  and  C_12
   10  A    between atoms: N_11  and  C_13
   11  A    between atoms: C_13  and  C_14
   12  A    between atoms: C_17  and  O_18
   13  A    between atoms: C_19  and  O_20
   14  A    between atoms: O_20  and  C_21
                            x       y       z     vdW  Elec       q    Type
                         _______ _______ _______ _____ _____    ______ ____

>  <TORSDO>
F 11

>  <SCORE>
-5.911

>  <RMSD_LB>
7.488

>  <RMSD_UB>
10.887

$$$$
CHEMBL77389
 OpenBabel10172500103D

 23 23  0  0  0  0  0  0  0  0999 V2000
  135.8520  132.7150  145.1480 C   0  0  0  0  0  0  0  0  0  0  0  0
  134.8130  132.1670  144.7740 O   0  0  0  0  0  0  0  0  0  0  0  0
  136.0840  133.0060  146.4860 N   0  0  0  0  0  0  0  0  0  0  0  0
  137.3430  133.5020  147.0250 C   0  0  0  0  0  1  0  0  0  0  0  0
  136.9480  133.0930  144.1570 C   0  0  0  0  0  2  0  0  0  0  0  0
  137.1570  132.0550  143.0520 C   0  0  0  0  0  2  0  0  0  0  0  0
  137.9510  132.6190  141.8700 C   0  0  0  0  0  2  0  0  0  0  0  0
  137.0690  133.4860  140.9750 C   0  0  0  0  0  2  0  0  0  0  0  0
  137.8380  133.9320  139.7310 C   0  0  0  0  0  2  0  0  0  0  0  0
  138.9670  132.9580  139.4080 C   0  0  0  0  0  2  0  0  0  0  0  0
  140.6570  134.7970  139.6740 C   0  0  0  0  0  1  0  0  0  0  0  0
  140.1570  133.6780  138.7770 C   0  0  0  0  0  2  0  0  0  0  0  0
  135.0290  132.6990  147.4500 C   0  0  0  0  0  2  0  0  0  0  0  0
  134.3370  133.9430  147.9620 C   0  0  0  0  0  0  0  0  0  0  0  0
  133.5830  134.7480  147.1000 C   0  0  0  0  0  3  0  0  0  0  0  0
  132.9440  135.8920  147.5820 C   0  0  0  0  0  3  0  0  0  0  0  0
  133.0640  136.2570  148.9280 C   0  0  0  0  0  0  0  0  0  0  0  0
  133.8290  135.4780  149.8030 C   0  0  0  0  0  0  0  0  0  0  0  0
  134.4480  134.3200  149.3070 C   0  0  0  0  0  3  0  0  0  0  0  0
  132.4110  137.3790  149.3550 O   0  0  0  0  0  0  0  0  0  0  0  0
  132.5990  137.7350  150.2010 H   0  0  0  0  0  0  0  0  0  0  0  0
  134.0710  135.6750  151.1360 O   0  0  0  0  0  0  0  0  0  0  0  0
  133.6340  134.6800  152.0490 C   0  0  0  0  0  1  0  0  0  0  0  0
  1  3  1  0  0  0  0
  2  1  2  0  0  0  0
  3  4  1  0  0  0  0
  3 13  1  0  0  0  0
  5  1  1  0  0  0  0
  6  5  1  0  0  0  0
  7  6  1  0  0  0  0
  8  7  1  0  0  0  0
  9  8  1  0  0  0  0
 10  9  1  0  0  0  0
 12 10  1  0  0  0  0
 12 11  1  0  0  0  0
 13 14  1  0  0  0  0
 14 19  1  0  0  0  0
 15 16  1  0  0  0  0
 15 14  2  0  0  0  0
 16 17  2  0  0  0  0
 17 20  1  0  0  0  0
 17 18  1  0  0  0  0
 18 22  1  0  0  0  0
 19 18  2  0  0  0  0
 20 21  1  0  0  0  0
 22 23  1  0  0  0  0
M  END
>  <MODEL>
6

>  <REMARK>
 VINA RESULT:    -5.875      7.796     11.255
 INTER + INTRA:         -10.314
 INTER:                  -9.505
 INTRA:                  -0.809
 UNBOUND:                -0.833
  Name = CHEMBL77389
  14 active torsions:
  status: ('A' for Active; 'I' for Inactive)
    1  A    between atoms: C_1  and  C_2
    2  A    between atoms: C_2  and  C_3
    3  A    between atoms: C_3  and  C_4
    4  A    between atoms: C_4  and  C_5
    5  A    between atoms: C_5  and  C_6
    6  A    between atoms: C_6  and  C_7
    7  A    between atoms: C_7  and  C_8
    8  A    between atoms: C_8  and  C_9
    9  A    between atoms: N_11  and  C_12
   10  A    between atoms: N_11  and  C_13
   11  A    between atoms: C_13  and  C_14
   12  A    between atoms: C_17  and  O_18
   13  A    between atoms: C_19  and  O_20
   14  A    between atoms: O_20  and  C_21
                            x       y       z     vdW  Elec       q    Type
                         _______ _______ _______ _____ _____    ______ ____

>  <TORSDO>
F 11

>  <SCORE>
-5.875

>  <RMSD_LB>
7.796

>  <RMSD_UB>
11.255

$$$$
CHEMBL77389
 OpenBabel10172500103D

 23 23  0  0  0  0  0  0  0  0999 V2000
  144.2080  139.2730  151.8820 C   0  0  0  0  0  0  0  0  0  0  0  0
  143.8510  139.7490  150.8030 O   0  0  0  0  0  0  0  0  0  0  0  0
  143.9740  137.9430  152.2080 N   0  0  0  0  0  0  0  0  0  0  0  0
  144.5010  137.2680  153.3850 C   0  0  0  0  0  1  0  0  0  0  0  0
  144.9390  140.1200  152.9180 C   0  0  0  0  0  2  0  0  0  0  0  0
  146.4420  140.2410  152.6590 C   0  0  0  0  0  2  0  0  0  0  0  0
  146.8700  141.6850  152.3850 C   0  0  0  0  0  2  0  0  0  0  0  0
  145.6910  142.5310  151.9110 C   0  0  0  0  0  2  0  0  0  0  0  0
  145.9070  142.9980  150.4720 C   0  0  0  0  0  2  0  0  0  0  0  0
  146.9550  142.1390  149.7710 C   0  0  0  0  0  2  0  0  0  0  0  0
  146.7230  139.7690  148.9700 C   0  0  0  0  0  1  0  0  0  0  0  0
  146.3130  141.2140  148.7390 C   0  0  0  0  0  2  0  0  0  0  0  0
  143.2320  137.1220  151.2540 C   0  0  0  0  0  2  0  0  0  0  0  0
  141.7350  137.2970  151.3850 C   0  0  0  0  0  0  0  0  0  0  0  0
  140.8860  137.0280  150.3060 C   0  0  0  0  0  3  0  0  0  0  0  0
  139.5050  137.1890  150.4370 C   0  0  0  0  0  3  0  0  0  0  0  0
  138.9560  137.6370  151.6430 C   0  0  0  0  0  0  0  0  0  0  0  0
  139.7870  137.9310  152.7300 C   0  0  0  0  0  0  0  0  0  0  0  0
  141.1710  137.7450  152.5870 C   0  0  0  0  0  3  0  0  0  0  0  0
  137.5980  137.7680  151.7280 O   0  0  0  0  0  0  0  0  0  0  0  0
  137.1080  137.2090  152.2990 H   0  0  0  0  0  0  0  0  0  0  0  0
  139.4420  138.3860  153.9740 O   0  0  0  0  0  0  0  0  0  0  0  0
  140.4760  138.8570  154.8240 C   0  0  0  0  0  1  0  0  0  0  0  0
  1  3  1  0  0  0  0
  1  5  1  0  0  0  0
  2  1  2  0  0  0  0
  3  4  1  0  0  0  0
  6  5  1  0  0  0  0
  7  6  1  0  0  0  0
  8  7  1  0  0  0  0
  9  8  1  0  0  0  0
 10  9  1  0  0  0  0
 12 11  1  0  0  0  0
 12 10  1  0  0  0  0
 13 14  1  0  0  0  0
 13  3  1  0  0  0  0
 14 19  1  0  0  0  0
 15 16  1  0  0  0  0
 15 14  2  0  0  0  0
 16 17  2  0  0  0  0
 17 20  1  0  0  0  0
 17 18  1  0  0  0  0
 18 22  1  0  0  0  0
 19 18  2  0  0  0  0
 20 21  1  0  0  0  0
 22 23  1  0  0  0  0
M  END
>  <MODEL>
7

>  <REMARK>
 VINA RESULT:    -5.748      4.121      8.528
 INTER + INTRA:         -10.108
 INTER:                  -9.094
 INTRA:                  -1.015
 UNBOUND:                -0.833
  Name = CHEMBL77389
  14 active torsions:
  status: ('A' for Active; 'I' for Inactive)
    1  A    between atoms: C_1  and  C_2
    2  A    between atoms: C_2  and  C_3
    3  A    between atoms: C_3  and  C_4
    4  A    between atoms: C_4  and  C_5
    5  A    between atoms: C_5  and  C_6
    6  A    between atoms: C_6  and  C_7
    7  A    between atoms: C_7  and  C_8
    8  A    between atoms: C_8  and  C_9
    9  A    between atoms: N_11  and  C_12
   10  A    between atoms: N_11  and  C_13
   11  A    between atoms: C_13  and  C_14
   12  A    between atoms: C_17  and  O_18
   13  A    between atoms: C_19  and  O_20
   14  A    between atoms: O_20  and  C_21
                            x       y       z     vdW  Elec       q    Type
                         _______ _______ _______ _____ _____    ______ ____

>  <TORSDO>
F 11

>  <SCORE>
-5.748

>  <RMSD_LB>
4.121

>  <RMSD_UB>
8.528

$$$$
CHEMBL77389
 OpenBabel10172500103D

 23 23  0  0  0  0  0  0  0  0999 V2000
  144.4900  138.6440  149.9650 C   0  0  0  0  0  0  0  0  0  0  0  0
  143.9710  139.6380  150.4760 O   0  0  0  0  0  0  0  0  0  0  0  0
  144.4260  137.3940  150.5670 N   0  0  0  0  0  0  0  0  0  0  0  0
  144.8710  136.1500  149.9560 C   0  0  0  0  0  1  0  0  0  0  0  0
  145.2230  138.7310  148.6310 C   0  0  0  0  0  2  0  0  0  0  0  0
  146.5130  139.5520  148.6940 C   0  0  0  0  0  2  0  0  0  0  0  0
  146.4990  140.7310  147.7180 C   0  0  0  0  0  2  0  0  0  0  0  0
  146.3870  142.0620  148.4580 C   0  0  0  0  0  2  0  0  0  0  0  0
  146.7670  141.8940  149.9290 C   0  0  0  0  0  2  0  0  0  0  0  0
  145.7930  142.6450  150.8330 C   0  0  0  0  0  2  0  0  0  0  0  0
  146.9980  141.1260  152.4310 C   0  0  0  0  0  1  0  0  0  0  0  0
  145.9380  142.2060  152.2890 C   0  0  0  0  0  2  0  0  0  0  0  0
  143.7720  137.2910  151.8710 C   0  0  0  0  0  2  0  0  0  0  0  0
  144.6510  137.7860  152.9970 C   0  0  0  0  0  0  0  0  0  0  0  0
  144.1680  138.7120  153.9280 C   0  0  0  0  0  3  0  0  0  0  0  0
  144.9860  139.1610  154.9670 C   0  0  0  0  0  3  0  0  0  0  0  0
  146.3030  138.7040  155.0800 C   0  0  0  0  0  0  0  0  0  0  0  0
  146.8150  137.7920  154.1480 C   0  0  0  0  0  0  0  0  0  0  0  0
  145.9730  137.3370  153.1220 C   0  0  0  0  0  3  0  0  0  0  0  0
  147.0620  139.1620  156.1200 O   0  0  0  0  0  0  0  0  0  0  0  0
  147.8480  138.7130  156.3600 H   0  0  0  0  0  0  0  0  0  0  0  0
  148.0670  137.2440  154.0860 O   0  0  0  0  0  0  0  0  0  0  0  0
  148.8630  137.5240  152.9450 C   0  0  0  0  0  1  0  0  0  0  0  0
  1  2  2  0  0  0  0
  1  3  1  0  0  0  0
  3 13  1  0  0  0  0
  4  3  1  0  0  0  0
  5  6  1  0  0  0  0
  5  1  1  0  0  0  0
  7  8  1  0  0  0  0
  7  6  1  0  0  0  0
  8  9  1  0  0  0  0
  9 10  1  0  0  0  0
 10 12  1  0  0  0  0
 12 11  1  0  0  0  0
 13 14  1  0  0  0  0
 14 19  2  0  0  0  0
 14 15  1  0  0  0  0
 15 16  2  0  0  0  0
 16 17  1  0  0  0  0
 17 20  1  0  0  0  0
 18 17  2  0  0  0  0
 19 18  1  0  0  0  0
 20 21  1  0  0  0  0
 22 18  1  0  0  0  0
 23 22  1  0  0  0  0
M  END
>  <MODEL>
8

>  <REMARK>
 VINA RESULT:    -5.689      6.675     10.089
 INTER + INTRA:         -10.014
 INTER:                  -8.316
 INTRA:                  -1.698
 UNBOUND:                -0.833
  Name = CHEMBL77389
  14 active torsions:
  status: ('A' for Active; 'I' for Inactive)
    1  A    between atoms: C_1  and  C_2
    2  A    between atoms: C_2  and  C_3
    3  A    between atoms: C_3  and  C_4
    4  A    between atoms: C_4  and  C_5
    5  A    between atoms: C_5  and  C_6
    6  A    between atoms: C_6  and  C_7
    7  A    between atoms: C_7  and  C_8
    8  A    between atoms: C_8  and  C_9
    9  A    between atoms: N_11  and  C_12
   10  A    between atoms: N_11  and  C_13
   11  A    between atoms: C_13  and  C_14
   12  A    between atoms: C_17  and  O_18
   13  A    between atoms: C_19  and  O_20
   14  A    between atoms: O_20  and  C_21
                            x       y       z     vdW  Elec       q    Type
                         _______ _______ _______ _____ _____    ______ ____

>  <TORSDO>
F 11

>  <SCORE>
-5.689

>  <RMSD_LB>
6.675

>  <RMSD_UB>
10.089

$$$$
CHEMBL77389
 OpenBabel10172500103D

 23 23  0  0  0  0  0  0  0  0999 V2000
  144.1590  138.0470  150.7630 C   0  0  0  0  0  0  0  0  0  0  0  0
  143.8260  139.2130  150.5430 O   0  0  0  0  0  0  0  0  0  0  0  0
  145.4910  137.6560  150.7690 N   0  0  0  0  0  0  0  0  0  0  0  0
  145.9730  136.3430  151.1750 C   0  0  0  0  0  1  0  0  0  0  0  0
  143.1200  136.9690  151.0530 C   0  0  0  0  0  2  0  0  0  0  0  0
  142.0040  137.4310  151.9920 C   0  0  0  0  0  2  0  0  0  0  0  0
  140.6510  137.5240  151.2830 C   0  0  0  0  0  2  0  0  0  0  0  0
  139.5230  137.7960  152.2760 C   0  0  0  0  0  2  0  0  0  0  0  0
  139.9640  138.8130  153.3280 C   0  0  0  0  0  2  0  0  0  0  0  0
  139.6510  138.3130  154.7360 C   0  0  0  0  0  2  0  0  0  0  0  0
  141.9430  139.2240  155.2120 C   0  0  0  0  0  1  0  0  0  0  0  0
  140.9250  138.1520  155.5630 C   0  0  0  0  0  2  0  0  0  0  0  0
  146.5040  138.6590  150.4450 C   0  0  0  0  0  2  0  0  0  0  0  0
  146.8210  139.5580  151.6200 C   0  0  0  0  0  0  0  0  0  0  0  0
  147.0370  140.9280  151.4340 C   0  0  0  0  0  3  0  0  0  0  0  0
  147.3250  141.7510  152.5250 C   0  0  0  0  0  3  0  0  0  0  0  0
  147.4180  141.2140  153.8130 C   0  0  0  0  0  0  0  0  0  0  0  0
  147.2240  139.8430  154.0200 C   0  0  0  0  0  0  0  0  0  0  0  0
  146.9160  139.0340  152.9160 C   0  0  0  0  0  3  0  0  0  0  0  0
  147.6900  142.0610  154.8500 O   0  0  0  0  0  0  0  0  0  0  0  0
  148.3760  141.8550  155.4550 H   0  0  0  0  0  0  0  0  0  0  0  0
  147.2840  139.1380  155.1910 O   0  0  0  0  0  0  0  0  0  0  0  0
  147.9640  137.8920  155.1870 C   0  0  0  0  0  1  0  0  0  0  0  0
  1  3  1  0  0  0  0
  1  5  1  0  0  0  0
  2  1  2  0  0  0  0
  3  4  1  0  0  0  0
  5  6  1  0  0  0  0
  7  6  1  0  0  0  0
  7  8  1  0  0  0  0
  8  9  1  0  0  0  0
  9 10  1  0  0  0  0
 10 12  1  0  0  0  0
 11 12  1  0  0  0  0
 13  3  1  0  0  0  0
 13 14  1  0  0  0  0
 14 19  1  0  0  0  0
 15 14  2  0  0  0  0
 15 16  1  0  0  0  0
 16 17  2  0  0  0  0
 17 18  1  0  0  0  0
 17 20  1  0  0  0  0
 18 22  1  0  0  0  0
 19 18  2  0  0  0  0
 20 21  1  0  0  0  0
 23 22  1  0  0  0  0
M  END
>  <MODEL>
9

>  <REMARK>
 VINA RESULT:    -5.535      4.936      7.882
 INTER + INTRA:          -9.765
 INTER:                  -8.932
 INTRA:                  -0.833
 UNBOUND:                -0.833
  Name = CHEMBL77389
  14 active torsions:
  status: ('A' for Active; 'I' for Inactive)
    1  A    between atoms: C_1  and  C_2
    2  A    between atoms: C_2  and  C_3
    3  A    between atoms: C_3  and  C_4
    4  A    between atoms: C_4  and  C_5
    5  A    between atoms: C_5  and  C_6
    6  A    between atoms: C_6  and  C_7
    7  A    between atoms: C_7  and  C_8
    8  A    between atoms: C_8  and  C_9
    9  A    between atoms: N_11  and  C_12
   10  A    between atoms: N_11  and  C_13
   11  A    between atoms: C_13  and  C_14
   12  A    between atoms: C_17  and  O_18
   13  A    between atoms: C_19  and  O_20
   14  A    between atoms: O_20  and  C_21
                            x       y       z     vdW  Elec       q    Type
                         _______ _______ _______ _____ _____    ______ ____

>  <TORSDO>
F 11

>  <SCORE>
-5.535

>  <RMSD_LB>
4.936

>  <RMSD_UB>
7.882

$$$$
