CHEMBL1205991
 OpenBabel10172500483D

 31 31  0  0  1  0  0  0  0  0999 V2000
  141.6810  138.0860  152.5410 C   0  0  0  0  0  0  0  0  0  0  0  0
  142.1400  138.3380  153.8380 C   0  0  0  0  0  3  0  0  0  0  0  0
  141.2430  138.4390  154.9060 C   0  0  0  0  0  3  0  0  0  0  0  0
  139.8690  138.2850  154.7030 C   0  0  0  0  0  0  0  0  0  0  0  0
  139.3960  138.0370  153.4030 C   0  0  0  0  0  0  0  0  0  0  0  0
  140.3050  137.9020  152.3420 C   0  0  0  0  0  3  0  0  0  0  0  0
  138.0800  137.8590  153.0430 O   0  0  0  0  0  0  0  0  0  0  0  0
  137.8570  137.3470  151.7310 C   0  0  0  0  0  1  0  0  0  0  0  0
  142.6560  138.0390  151.3990 C   0  0  0  0  0  2  0  0  0  0  0  0
  143.6340  140.1020  150.5260 C   0  0  0  0  0  0  0  0  0  0  0  0
  142.7990  140.1870  149.6300 O   0  0  0  0  0  0  0  0  0  0  0  0
  143.6330  139.0960  151.4650 N   0  0  0  0  0  0  0  0  0  0  0  0
  144.3030  139.0980  152.1860 H   0  0  0  0  0  0  0  0  0  0  0  0
  144.7500  141.1140  150.6880 C   0  0  0  0  0  2  0  0  0  0  0  0
  145.4750  140.9160  152.0150 C   0  0  0  0  0  2  0  0  0  0  0  0
  146.2920  142.1420  152.4130 C   0  0  0  0  0  2  0  0  0  0  0  0
  146.6860  142.0500  153.8870 C   0  0  0  0  0  2  0  0  0  0  0  0
  148.1910  141.8610  154.0520 C   0  0  0  0  0  2  0  0  0  0  0  0
  148.5580  140.3790  154.0240 C   0  0  0  0  0  2  0  0  0  0  0  0
  147.2620  138.2370  154.2480 C   0  0  0  0  0  1  0  0  0  0  0  0
  147.6160  139.5610  154.9050 C   0  0  0  0  0  2  0  0  0  0  0  0
  138.9520  138.3190  155.7150 O   0  0  0  0  0  0  0  0  0  0  0  0
  138.5060  137.0840  156.2810 C   0  0  0  0  0  2  0  0  0  0  0  0
  136.9870  137.1900  156.4840 C   0  0  1  0  0  3  0  0  0  0  0  0
  136.4530  138.1330  155.5470 O   0  0  0  0  0  0  0  0  0  0  0  0
  135.5110  137.9510  155.4070 H   0  0  0  0  0  0  0  0  0  0  0  0
  136.2470  135.8610  156.2940 C   0  0  0  0  0  2  0  0  0  0  0  0
  136.0220  135.5140  154.8290 C   0  0  0  0  0  2  0  0  0  0  0  0
  134.5530  135.4300  154.5210 C   0  0  0  0  0  0  0  0  0  0  0  0
  133.9120  134.3840  154.5490 O   0  0  0  0  0  1  0  0  0  0  0  0
  133.9940  136.6210  154.2340 O   0  0  0  0  0  0  0  0  0  0  0  0
  1  2  1  0  0  0  0
  2  3  2  0  0  0  0
  4  3  1  0  0  0  0
  4 22  1  0  0  0  0
  5  4  2  0  0  0  0
  6  1  2  0  0  0  0
  6  5  1  0  0  0  0
  7  5  1  0  0  0  0
  8  7  1  0  0  0  0
  9 12  1  0  0  0  0
  9  1  1  0  0  0  0
 10 14  1  0  0  0  0
 10 12  1  0  0  0  0
 11 10  2  0  0  0  0
 12 13  1  0  0  0  0
 14 15  1  0  0  0  0
 15 16  1  0  0  0  0
 16 17  1  0  0  0  0
 17 18  1  0  0  0  0
 19 18  1  0  0  0  0
 19 21  1  0  0  0  0
 20 21  1  0  0  0  0
 22 23  1  0  0  0  0
 24 23  1  6  0  0  0
 25 24  1  0  0  0  0
 26 25  1  0  0  0  0
 27 24  1  0  0  0  0
 28 27  1  0  0  0  0
 29 30  1  0  0  0  0
 29 28  1  0  0  0  0
 31 29  2  0  0  0  0
M  END
>  <MODEL>
1

>  <REMARK>
 VINA RESULT:    -6.694      0.000      0.000
 INTER + INTRA:         -15.334
 INTER:                 -13.417
 INTRA:                  -1.917
 UNBOUND:                -2.183
  Name = CHEMBL1205991
  19 active torsions:
  status: ('A' for Active; 'I' for Inactive)
    1  A    between atoms: C_1  and  C_2
    2  A    between atoms: C_2  and  C_3
    3  A    between atoms: C_3  and  C_4
    4  A    between atoms: C_4  and  C_5
    5  A    between atoms: C_5  and  C_6
    6  A    between atoms: C_6  and  C_7
    7  A    between atoms: C_7  and  C_8
    8  A    between atoms: C_8  and  C_9
    9  A    between atoms: N_11  and  C_12
   10  A    between atoms: C_12  and  C_13
   11  A    between atoms: C_16  and  O_17
   12  A    between atoms: O_17  and  C_18
   13  A    between atoms: C_18  and  C_19
   14  A    between atoms: C_19  and  O_20
   15  A    between atoms: C_19  and  C_21
   16  A    between atoms: C_21  and  C_22
   17  A    between atoms: C_22  and  C_23
   18  A    between atoms: C_26  and  O_27
   19  A    between atoms: O_27  and  C_28
                            x       y       z     vdW  Elec       q    Type
                         _______ _______ _______ _____ _____    ______ ____

>  <TORSDO>
F 17

>  <SCORE>
-6.694

>  <RMSD_LB>
0.000

>  <RMSD_UB>
0.000

$$$$
CHEMBL1205991
 OpenBabel10172500483D

 31 31  0  0  1  0  0  0  0  0999 V2000
  141.6710  137.8530  152.4570 C   0  0  0  0  0  0  0  0  0  0  0  0
  142.1820  138.1740  153.7180 C   0  0  0  0  0  3  0  0  0  0  0  0
  141.3250  138.4170  154.7960 C   0  0  0  0  0  3  0  0  0  0  0  0
  139.9380  138.3390  154.6390 C   0  0  0  0  0  0  0  0  0  0  0  0
  139.4130  138.0220  153.3740 C   0  0  0  0  0  0  0  0  0  0  0  0
  140.2810  137.7450  152.3050 C   0  0  0  0  0  3  0  0  0  0  0  0
  138.0790  137.9030  153.0600 O   0  0  0  0  0  0  0  0  0  0  0  0
  137.7850  137.3170  151.7950 C   0  0  0  0  0  1  0  0  0  0  0  0
  142.6070  137.6530  151.2990 C   0  0  0  0  0  2  0  0  0  0  0  0
  145.0400  137.7470  151.5130 C   0  0  0  0  0  0  0  0  0  0  0  0
  145.1550  136.5300  151.4070 O   0  0  0  0  0  0  0  0  0  0  0  0
  143.8310  138.4000  151.4450 N   0  0  0  0  0  0  0  0  0  0  0  0
  143.8000  139.3830  151.4960 H   0  0  0  0  0  0  0  0  0  0  0  0
  146.2350  138.6550  151.7210 C   0  0  0  0  0  2  0  0  0  0  0  0
  146.7540  138.5510  153.1520 C   0  0  0  0  0  2  0  0  0  0  0  0
  146.7920  139.9070  153.8500 C   0  0  0  0  0  2  0  0  0  0  0  0
  145.7670  140.8480  153.2170 C   0  0  0  0  0  2  0  0  0  0  0  0
  146.3580  142.2330  152.9700 C   0  0  0  0  0  2  0  0  0  0  0  0
  147.8100  142.1290  152.5090 C   0  0  0  0  0  2  0  0  0  0  0  0
  146.8830  142.6760  150.2380 C   0  0  0  0  0  1  0  0  0  0  0  0
  147.8950  141.8470  151.0110 C   0  0  0  0  0  2  0  0  0  0  0  0
  139.0550  138.5120  155.6660 O   0  0  0  0  0  0  0  0  0  0  0  0
  138.6660  137.3720  156.4380 C   0  0  0  0  0  2  0  0  0  0  0  0
  137.1370  137.4150  156.5870 C   0  0  1  0  0  3  0  0  0  0  0  0
  136.5880  138.2350  155.5480 O   0  0  0  0  0  0  0  0  0  0  0  0
  137.2350  138.9110  155.2950 H   0  0  0  0  0  0  0  0  0  0  0  0
  136.4730  136.0350  156.5040 C   0  0  0  0  0  2  0  0  0  0  0  0
  136.2260  135.5830  155.0720 C   0  0  0  0  0  2  0  0  0  0  0  0
  134.7520  135.4750  154.7940 C   0  0  0  0  0  0  0  0  0  0  0  0
  134.0750  134.4960  155.0900 O   0  0  0  0  0  1  0  0  0  0  0  0
  134.2340  136.5710  154.2090 O   0  0  0  0  0  0  0  0  0  0  0  0
  1  2  1  0  0  0  0
  2  3  2  0  0  0  0
  4  3  1  0  0  0  0
  4 22  1  0  0  0  0
  5  4  2  0  0  0  0
  6  1  2  0  0  0  0
  6  5  1  0  0  0  0
  7  5  1  0  0  0  0
  8  7  1  0  0  0  0
  9 12  1  0  0  0  0
  9  1  1  0  0  0  0
 10 14  1  0  0  0  0
 11 10  2  0  0  0  0
 12 13  1  0  0  0  0
 12 10  1  0  0  0  0
 14 15  1  0  0  0  0
 15 16  1  0  0  0  0
 17 16  1  0  0  0  0
 18 17  1  0  0  0  0
 19 18  1  0  0  0  0
 20 21  1  0  0  0  0
 21 19  1  0  0  0  0
 22 23  1  0  0  0  0
 24 23  1  6  0  0  0
 25 24  1  0  0  0  0
 26 25  1  0  0  0  0
 27 24  1  0  0  0  0
 28 27  1  0  0  0  0
 29 28  1  0  0  0  0
 29 30  1  0  0  0  0
 31 29  2  0  0  0  0
M  END
>  <MODEL>
2

>  <REMARK>
 VINA RESULT:    -6.574      1.354      2.095
 INTER + INTRA:         -15.098
 INTER:                 -13.073
 INTRA:                  -2.024
 UNBOUND:                -2.183
  Name = CHEMBL1205991
  19 active torsions:
  status: ('A' for Active; 'I' for Inactive)
    1  A    between atoms: C_1  and  C_2
    2  A    between atoms: C_2  and  C_3
    3  A    between atoms: C_3  and  C_4
    4  A    between atoms: C_4  and  C_5
    5  A    between atoms: C_5  and  C_6
    6  A    between atoms: C_6  and  C_7
    7  A    between atoms: C_7  and  C_8
    8  A    between atoms: C_8  and  C_9
    9  A    between atoms: N_11  and  C_12
   10  A    between atoms: C_12  and  C_13
   11  A    between atoms: C_16  and  O_17
   12  A    between atoms: O_17  and  C_18
   13  A    between atoms: C_18  and  C_19
   14  A    between atoms: C_19  and  O_20
   15  A    between atoms: C_19  and  C_21
   16  A    between atoms: C_21  and  C_22
   17  A    between atoms: C_22  and  C_23
   18  A    between atoms: C_26  and  O_27
   19  A    between atoms: O_27  and  C_28
                            x       y       z     vdW  Elec       q    Type
                         _______ _______ _______ _____ _____    ______ ____

>  <TORSDO>
F 17

>  <SCORE>
-6.574

>  <RMSD_LB>
1.354

>  <RMSD_UB>
2.095

$$$$
CHEMBL1205991
 OpenBabel10172500483D

 31 31  0  0  1  0  0  0  0  0999 V2000
  143.0040  137.7100  152.7050 C   0  0  0  0  0  0  0  0  0  0  0  0
  142.4780  138.1520  153.9230 C   0  0  0  0  0  3  0  0  0  0  0  0
  141.0970  138.2760  154.1020 C   0  0  0  0  0  3  0  0  0  0  0  0
  140.2100  137.9570  153.0690 C   0  0  0  0  0  0  0  0  0  0  0  0
  140.7280  137.5170  151.8390 C   0  0  0  0  0  0  0  0  0  0  0  0
  142.1150  137.3610  151.6790 C   0  0  0  0  0  3  0  0  0  0  0  0
  139.9910  137.1620  150.7330 O   0  0  0  0  0  0  0  0  0  0  0  0
  140.7350  136.6900  149.6130 C   0  0  0  0  0  1  0  0  0  0  0  0
  144.4930  137.6380  152.5150 C   0  0  0  0  0  2  0  0  0  0  0  0
  146.5810  138.5100  153.4400 C   0  0  0  0  0  0  0  0  0  0  0  0
  147.2510  138.0290  152.5310 O   0  0  0  0  0  0  0  0  0  0  0  0
  145.2110  138.3970  153.5080 N   0  0  0  0  0  0  0  0  0  0  0  0
  144.7180  138.8360  154.2390 H   0  0  0  0  0  0  0  0  0  0  0  0
  147.2060  139.2900  154.5790 C   0  0  0  0  0  2  0  0  0  0  0  0
  148.5730  139.8360  154.1780 C   0  0  0  0  0  2  0  0  0  0  0  0
  148.4730  141.2080  153.5190 C   0  0  0  0  0  2  0  0  0  0  0  0
  147.2610  141.9620  154.0650 C   0  0  0  0  0  2  0  0  0  0  0  0
  146.2620  142.2890  152.9590 C   0  0  0  0  0  2  0  0  0  0  0  0
  146.9270  142.2130  151.5860 C   0  0  0  0  0  2  0  0  0  0  0  0
  144.6980  141.1410  151.1430 C   0  0  0  0  0  1  0  0  0  0  0  0
  146.1100  141.3550  150.6240 C   0  0  0  0  0  2  0  0  0  0  0  0
  138.8530  138.0070  153.2030 O   0  0  0  0  0  0  0  0  0  0  0  0
  138.2990  138.6340  154.3640 C   0  0  0  0  0  2  0  0  0  0  0  0
  137.4990  137.5680  155.1280 C   0  0  1  0  0  3  0  0  0  0  0  0
  136.5120  138.2140  155.9410 O   0  0  0  0  0  0  0  0  0  0  0  0
  135.8120  138.5720  155.3730 H   0  0  0  0  0  0  0  0  0  0  0  0
  136.7810  136.5660  154.2160 C   0  0  0  0  0  2  0  0  0  0  0  0
  135.8700  135.6170  154.9810 C   0  0  0  0  0  2  0  0  0  0  0  0
  134.5630  135.4370  154.2600 C   0  0  0  0  0  0  0  0  0  0  0  0
  134.0780  136.2800  153.5120 O   0  0  0  0  0  0  0  0  0  0  0  0
  133.9810  134.2450  154.4910 O   0  0  0  0  0  1  0  0  0  0  0  0
  1  2  1  0  0  0  0
  2  3  2  0  0  0  0
  4 22  1  0  0  0  0
  4  3  1  0  0  0  0
  5  4  2  0  0  0  0
  6  5  1  0  0  0  0
  6  1  2  0  0  0  0
  7  5  1  0  0  0  0
  8  7  1  0  0  0  0
  9  1  1  0  0  0  0
  9 12  1  0  0  0  0
 10 12  1  0  0  0  0
 10 14  1  0  0  0  0
 11 10  2  0  0  0  0
 12 13  1  0  0  0  0
 15 14  1  0  0  0  0
 16 17  1  0  0  0  0
 16 15  1  0  0  0  0
 18 17  1  0  0  0  0
 19 18  1  0  0  0  0
 21 20  1  0  0  0  0
 21 19  1  0  0  0  0
 22 23  1  0  0  0  0
 23 24  1  0  0  0  0
 24 27  1  6  0  0  0
 24 25  1  0  0  0  0
 26 25  1  0  0  0  0
 27 28  1  0  0  0  0
 29 31  1  0  0  0  0
 29 28  1  0  0  0  0
 30 29  2  0  0  0  0
M  END
>  <MODEL>
3

>  <REMARK>
 VINA RESULT:    -6.406      1.688      2.904
 INTER + INTRA:         -14.768
 INTER:                 -13.089
 INTRA:                  -1.678
 UNBOUND:                -2.183
  Name = CHEMBL1205991
  19 active torsions:
  status: ('A' for Active; 'I' for Inactive)
    1  A    between atoms: C_1  and  C_2
    2  A    between atoms: C_2  and  C_3
    3  A    between atoms: C_3  and  C_4
    4  A    between atoms: C_4  and  C_5
    5  A    between atoms: C_5  and  C_6
    6  A    between atoms: C_6  and  C_7
    7  A    between atoms: C_7  and  C_8
    8  A    between atoms: C_8  and  C_9
    9  A    between atoms: N_11  and  C_12
   10  A    between atoms: C_12  and  C_13
   11  A    between atoms: C_16  and  O_17
   12  A    between atoms: O_17  and  C_18
   13  A    between atoms: C_18  and  C_19
   14  A    between atoms: C_19  and  O_20
   15  A    between atoms: C_19  and  C_21
   16  A    between atoms: C_21  and  C_22
   17  A    between atoms: C_22  and  C_23
   18  A    between atoms: C_26  and  O_27
   19  A    between atoms: O_27  and  C_28
                            x       y       z     vdW  Elec       q    Type
                         _______ _______ _______ _____ _____    ______ ____

>  <TORSDO>
F 17

>  <SCORE>
-6.406

>  <RMSD_LB>
1.688

>  <RMSD_UB>
2.904

$$$$
CHEMBL1205991
 OpenBabel10172500483D

 31 31  0  0  1  0  0  0  0  0999 V2000
  144.2260  136.9520  150.8920 C   0  0  0  0  0  0  0  0  0  0  0  0
  143.8650  137.4630  152.1420 C   0  0  0  0  0  3  0  0  0  0  0  0
  142.5200  137.6610  152.4720 C   0  0  0  0  0  3  0  0  0  0  0  0
  141.5070  137.3470  151.5620 C   0  0  0  0  0  0  0  0  0  0  0  0
  141.8590  136.8370  150.3010 C   0  0  0  0  0  0  0  0  0  0  0  0
  143.2090  136.6080  149.9900 C   0  0  0  0  0  3  0  0  0  0  0  0
  140.9830  136.4770  149.3020 O   0  0  0  0  0  0  0  0  0  0  0  0
  140.7010  137.4800  148.3290 C   0  0  0  0  0  1  0  0  0  0  0  0
  145.6780  136.8020  150.5370 C   0  0  0  0  0  2  0  0  0  0  0  0
  147.3360  138.1980  151.6670 C   0  0  0  0  0  0  0  0  0  0  0  0
  147.3120  139.0460  150.7790 O   0  0  0  0  0  0  0  0  0  0  0  0
  146.5480  137.0700  151.6540 N   0  0  0  0  0  0  0  0  0  0  0  0
  146.5790  136.4420  152.4120 H   0  0  0  0  0  0  0  0  0  0  0  0
  148.2400  138.3220  152.8770 C   0  0  0  0  0  2  0  0  0  0  0  0
  147.4430  138.1690  154.1680 C   0  0  0  0  0  2  0  0  0  0  0  0
  147.0170  139.5160  154.7450 C   0  0  0  0  0  2  0  0  0  0  0  0
  148.1160  140.5530  154.5110 C   0  0  0  0  0  2  0  0  0  0  0  0
  147.5310  141.9160  154.1530 C   0  0  0  0  0  2  0  0  0  0  0  0
  146.3760  141.7670  153.1650 C   0  0  0  0  0  2  0  0  0  0  0  0
  145.5720  142.5830  150.9280 C   0  0  0  0  0  1  0  0  0  0  0  0
  146.7860  142.2170  151.7650 C   0  0  0  0  0  2  0  0  0  0  0  0
  140.1770  137.4670  151.8480 O   0  0  0  0  0  0  0  0  0  0  0  0
  139.6290  138.7750  152.0330 C   0  0  0  0  0  2  0  0  0  0  0  0
  139.2600  138.9160  153.5180 C   0  0  1  0  0  3  0  0  0  0  0  0
  138.7630  140.2390  153.7540 O   0  0  0  0  0  0  0  0  0  0  0  0
  138.9930  140.8080  153.0040 H   0  0  0  0  0  0  0  0  0  0  0  0
  138.1940  137.9170  153.9840 C   0  0  0  0  0  2  0  0  0  0  0  0
  138.2350  137.6660  155.4840 C   0  0  0  0  0  2  0  0  0  0  0  0
  136.8600  137.7860  156.0820 C   0  0  0  0  0  0  0  0  0  0  0  0
  135.8540  137.3030  155.5740 O   0  0  0  0  0  0  0  0  0  0  0  0
  136.8380  138.4550  157.2500 O   0  0  0  0  0  1  0  0  0  0  0  0
  1  2  1  0  0  0  0
  2  3  2  0  0  0  0
  4 22  1  0  0  0  0
  4  3  1  0  0  0  0
  5  4  2  0  0  0  0
  6  5  1  0  0  0  0
  6  1  2  0  0  0  0
  7  5  1  0  0  0  0
  8  7  1  0  0  0  0
  9  1  1  0  0  0  0
  9 12  1  0  0  0  0
 10 14  1  0  0  0  0
 11 10  2  0  0  0  0
 12 10  1  0  0  0  0
 12 13  1  0  0  0  0
 14 15  1  0  0  0  0
 15 16  1  0  0  0  0
 17 16  1  0  0  0  0
 18 17  1  0  0  0  0
 19 18  1  0  0  0  0
 20 21  1  0  0  0  0
 21 19  1  0  0  0  0
 22 23  1  0  0  0  0
 24 23  1  6  0  0  0
 24 25  1  0  0  0  0
 24 27  1  0  0  0  0
 26 25  1  0  0  0  0
 27 28  1  0  0  0  0
 28 29  1  0  0  0  0
 29 31  1  0  0  0  0
 30 29  2  0  0  0  0
M  END
>  <MODEL>
4

>  <REMARK>
 VINA RESULT:    -6.225      2.129      3.884
 INTER + INTRA:         -14.412
 INTER:                 -12.771
 INTRA:                  -1.641
 UNBOUND:                -2.183
  Name = CHEMBL1205991
  19 active torsions:
  status: ('A' for Active; 'I' for Inactive)
    1  A    between atoms: C_1  and  C_2
    2  A    between atoms: C_2  and  C_3
    3  A    between atoms: C_3  and  C_4
    4  A    between atoms: C_4  and  C_5
    5  A    between atoms: C_5  and  C_6
    6  A    between atoms: C_6  and  C_7
    7  A    between atoms: C_7  and  C_8
    8  A    between atoms: C_8  and  C_9
    9  A    between atoms: N_11  and  C_12
   10  A    between atoms: C_12  and  C_13
   11  A    between atoms: C_16  and  O_17
   12  A    between atoms: O_17  and  C_18
   13  A    between atoms: C_18  and  C_19
   14  A    between atoms: C_19  and  O_20
   15  A    between atoms: C_19  and  C_21
   16  A    between atoms: C_21  and  C_22
   17  A    between atoms: C_22  and  C_23
   18  A    between atoms: C_26  and  O_27
   19  A    between atoms: O_27  and  C_28
                            x       y       z     vdW  Elec       q    Type
                         _______ _______ _______ _____ _____    ______ ____

>  <TORSDO>
F 17

>  <SCORE>
-6.225

>  <RMSD_LB>
2.129

>  <RMSD_UB>
3.884

$$$$
CHEMBL1205991
 OpenBabel10172500483D

 31 31  0  0  1  0  0  0  0  0999 V2000
  141.2200  137.8560  153.2490 C   0  0  0  0  0  0  0  0  0  0  0  0
  141.1560  137.5360  151.8890 C   0  0  0  0  0  3  0  0  0  0  0  0
  139.9240  137.4360  151.2360 C   0  0  0  0  0  3  0  0  0  0  0  0
  138.7280  137.6580  151.9250 C   0  0  0  0  0  0  0  0  0  0  0  0
  138.7800  137.9750  153.2930 C   0  0  0  0  0  0  0  0  0  0  0  0
  140.0230  138.1090  153.9340 C   0  0  0  0  0  3  0  0  0  0  0  0
  137.6990  138.2250  154.1060 O   0  0  0  0  0  0  0  0  0  0  0  0
  137.8870  137.9600  155.4940 C   0  0  0  0  0  1  0  0  0  0  0  0
  142.5500  137.9020  153.9450 C   0  0  0  0  0  2  0  0  0  0  0  0
  144.6640  139.0630  153.5450 C   0  0  0  0  0  0  0  0  0  0  0  0
  145.3200  138.0330  153.6700 O   0  0  0  0  0  0  0  0  0  0  0  0
  143.2920  139.0990  153.6360 N   0  0  0  0  0  0  0  0  0  0  0  0
  142.8130  139.9460  153.4880 H   0  0  0  0  0  0  0  0  0  0  0  0
  145.3130  140.4040  153.2690 C   0  0  0  0  0  2  0  0  0  0  0  0
  146.6140  140.5510  154.0520 C   0  0  0  0  0  2  0  0  0  0  0  0
  147.6040  141.4780  153.3530 C   0  0  0  0  0  2  0  0  0  0  0  0
  146.8770  142.3230  152.3080 C   0  0  0  0  0  2  0  0  0  0  0  0
  147.6540  142.3780  150.9950 C   0  0  0  0  0  2  0  0  0  0  0  0
  146.7010  142.4190  149.8020 C   0  0  0  0  0  2  0  0  0  0  0  0
  146.3710  139.9430  149.5180 C   0  0  0  0  0  1  0  0  0  0  0  0
  145.7020  141.2660  149.8550 C   0  0  0  0  0  2  0  0  0  0  0  0
  137.5010  137.6270  151.3290 O   0  0  0  0  0  0  0  0  0  0  0  0
  137.0850  136.4260  150.6720 C   0  0  0  0  0  2  0  0  0  0  0  0
  135.8380  135.9070  151.4040 C   0  0  1  0  0  3  0  0  0  0  0  0
  134.9160  135.3790  150.4440 O   0  0  0  0  0  0  0  0  0  0  0  0
  134.2330  134.8640  150.9010 H   0  0  0  0  0  0  0  0  0  0  0  0
  136.1400  134.8060  152.4270 C   0  0  0  0  0  2  0  0  0  0  0  0
  135.8670  135.2390  153.8600 C   0  0  0  0  0  2  0  0  0  0  0  0
  134.4200  135.6080  154.0380 C   0  0  0  0  0  0  0  0  0  0  0  0
  134.0360  136.7430  154.3020 O   0  0  0  0  0  1  0  0  0  0  0  0
  133.5750  134.5750  153.8560 O   0  0  0  0  0  0  0  0  0  0  0  0
  1  6  1  0  0  0  0
  1  9  1  0  0  0  0
  2  1  2  0  0  0  0
  3  2  1  0  0  0  0
  3  4  2  0  0  0  0
  4  5  1  0  0  0  0
  5  6  2  0  0  0  0
  5  7  1  0  0  0  0
  7  8  1  0  0  0  0
 10 12  1  0  0  0  0
 10 11  2  0  0  0  0
 12  9  1  0  0  0  0
 13 12  1  0  0  0  0
 14 10  1  0  0  0  0
 14 15  1  0  0  0  0
 16 15  1  0  0  0  0
 17 16  1  0  0  0  0
 18 17  1  0  0  0  0
 19 21  1  0  0  0  0
 19 18  1  0  0  0  0
 20 21  1  0  0  0  0
 22  4  1  0  0  0  0
 23 22  1  0  0  0  0
 24 23  1  6  0  0  0
 24 27  1  0  0  0  0
 25 26  1  0  0  0  0
 25 24  1  0  0  0  0
 27 28  1  0  0  0  0
 28 29  1  0  0  0  0
 29 30  1  0  0  0  0
 31 29  2  0  0  0  0
M  END
>  <MODEL>
5

>  <REMARK>
 VINA RESULT:    -6.160      1.923      3.528
 INTER + INTRA:         -14.285
 INTER:                 -12.684
 INTRA:                  -1.601
 UNBOUND:                -2.183
  Name = CHEMBL1205991
  19 active torsions:
  status: ('A' for Active; 'I' for Inactive)
    1  A    between atoms: C_1  and  C_2
    2  A    between atoms: C_2  and  C_3
    3  A    between atoms: C_3  and  C_4
    4  A    between atoms: C_4  and  C_5
    5  A    between atoms: C_5  and  C_6
    6  A    between atoms: C_6  and  C_7
    7  A    between atoms: C_7  and  C_8
    8  A    between atoms: C_8  and  C_9
    9  A    between atoms: N_11  and  C_12
   10  A    between atoms: C_12  and  C_13
   11  A    between atoms: C_16  and  O_17
   12  A    between atoms: O_17  and  C_18
   13  A    between atoms: C_18  and  C_19
   14  A    between atoms: C_19  and  O_20
   15  A    between atoms: C_19  and  C_21
   16  A    between atoms: C_21  and  C_22
   17  A    between atoms: C_22  and  C_23
   18  A    between atoms: C_26  and  O_27
   19  A    between atoms: O_27  and  C_28
                            x       y       z     vdW  Elec       q    Type
                         _______ _______ _______ _____ _____    ______ ____

>  <TORSDO>
F 17

>  <SCORE>
-6.160

>  <RMSD_LB>
1.923

>  <RMSD_UB>
3.528

$$$$
CHEMBL1205991
 OpenBabel10172500483D

 31 31  0  0  1  0  0  0  0  0999 V2000
  142.4220  137.0390  150.8490 C   0  0  0  0  0  0  0  0  0  0  0  0
  142.3880  137.4190  152.1940 C   0  0  0  0  0  3  0  0  0  0  0  0
  141.2060  137.8910  152.7730 C   0  0  0  0  0  3  0  0  0  0  0  0
  140.0300  137.9880  152.0230 C   0  0  0  0  0  0  0  0  0  0  0  0
  140.0550  137.6130  150.6690 C   0  0  0  0  0  0  0  0  0  0  0  0
  141.2370  137.1060  150.1040 C   0  0  0  0  0  3  0  0  0  0  0  0
  138.9870  137.6460  149.8020 O   0  0  0  0  0  0  0  0  0  0  0  0
  139.1250  138.5050  148.6730 C   0  0  0  0  0  1  0  0  0  0  0  0
  143.7160  136.5890  150.2320 C   0  0  0  0  0  2  0  0  0  0  0  0
  145.8600  137.5670  149.5820 C   0  0  0  0  0  0  0  0  0  0  0  0
  146.4710  136.5280  149.8170 O   0  0  0  0  0  0  0  0  0  0  0  0
  144.4980  137.6910  149.7290 N   0  0  0  0  0  0  0  0  0  0  0  0
  144.0530  138.5360  149.4880 H   0  0  0  0  0  0  0  0  0  0  0  0
  146.5580  138.8210  149.0960 C   0  0  0  0  0  2  0  0  0  0  0  0
  146.4830  139.9260  150.1440 C   0  0  0  0  0  2  0  0  0  0  0  0
  145.8610  141.2040  149.5900 C   0  0  0  0  0  2  0  0  0  0  0  0
  146.6720  142.4180  150.0420 C   0  0  0  0  0  2  0  0  0  0  0  0
  147.2780  142.2010  151.4260 C   0  0  0  0  0  2  0  0  0  0  0  0
  146.1970  142.2510  152.5050 C   0  0  0  0  0  2  0  0  0  0  0  0
  148.2610  141.6220  153.7930 C   0  0  0  0  0  1  0  0  0  0  0  0
  146.7700  141.9020  153.8760 C   0  0  0  0  0  2  0  0  0  0  0  0
  138.8360  138.3890  152.5480 O   0  0  0  0  0  0  0  0  0  0  0  0
  137.9300  137.3950  153.0360 C   0  0  0  0  0  2  0  0  0  0  0  0
  137.7440  137.6390  154.5420 C   0  0  1  0  0  3  0  0  0  0  0  0
  137.6910  139.0500  154.7850 O   0  0  0  0  0  0  0  0  0  0  0  0
  136.9070  139.2560  155.3180 H   0  0  0  0  0  0  0  0  0  0  0  0
  136.4680  137.0100  155.1140 C   0  0  0  0  0  2  0  0  0  0  0  0
  136.1960  135.6190  154.5590 C   0  0  0  0  0  2  0  0  0  0  0  0
  134.7180  135.3400  154.5210 C   0  0  0  0  0  0  0  0  0  0  0  0
  134.2180  134.2790  154.8810 O   0  0  0  0  0  1  0  0  0  0  0  0
  133.9860  136.3790  154.0780 O   0  0  0  0  0  0  0  0  0  0  0  0
  1  2  1  0  0  0  0
  2  3  2  0  0  0  0
  4 22  1  0  0  0  0
  4  3  1  0  0  0  0
  5  4  2  0  0  0  0
  6  5  1  0  0  0  0
  6  1  2  0  0  0  0
  7  5  1  0  0  0  0
  8  7  1  0  0  0  0
  9  1  1  0  0  0  0
 10 12  1  0  0  0  0
 10 11  2  0  0  0  0
 12  9  1  0  0  0  0
 13 12  1  0  0  0  0
 14 10  1  0  0  0  0
 14 15  1  0  0  0  0
 16 17  1  0  0  0  0
 16 15  1  0  0  0  0
 17 18  1  0  0  0  0
 18 19  1  0  0  0  0
 19 21  1  0  0  0  0
 20 21  1  0  0  0  0
 22 23  1  0  0  0  0
 24 23  1  6  0  0  0
 24 25  1  0  0  0  0
 24 27  1  0  0  0  0
 25 26  1  0  0  0  0
 28 27  1  0  0  0  0
 29 28  1  0  0  0  0
 29 30  1  0  0  0  0
 31 29  2  0  0  0  0
M  END
>  <MODEL>
6

>  <REMARK>
 VINA RESULT:    -6.055      2.052      2.750
 INTER + INTRA:         -14.079
 INTER:                 -13.034
 INTRA:                  -1.045
 UNBOUND:                -2.183
  Name = CHEMBL1205991
  19 active torsions:
  status: ('A' for Active; 'I' for Inactive)
    1  A    between atoms: C_1  and  C_2
    2  A    between atoms: C_2  and  C_3
    3  A    between atoms: C_3  and  C_4
    4  A    between atoms: C_4  and  C_5
    5  A    between atoms: C_5  and  C_6
    6  A    between atoms: C_6  and  C_7
    7  A    between atoms: C_7  and  C_8
    8  A    between atoms: C_8  and  C_9
    9  A    between atoms: N_11  and  C_12
   10  A    between atoms: C_12  and  C_13
   11  A    between atoms: C_16  and  O_17
   12  A    between atoms: O_17  and  C_18
   13  A    between atoms: C_18  and  C_19
   14  A    between atoms: C_19  and  O_20
   15  A    between atoms: C_19  and  C_21
   16  A    between atoms: C_21  and  C_22
   17  A    between atoms: C_22  and  C_23
   18  A    between atoms: C_26  and  O_27
   19  A    between atoms: O_27  and  C_28
                            x       y       z     vdW  Elec       q    Type
                         _______ _______ _______ _____ _____    ______ ____

>  <TORSDO>
F 17

>  <SCORE>
-6.055

>  <RMSD_LB>
2.052

>  <RMSD_UB>
2.750

$$$$
CHEMBL1205991
 OpenBabel10172500483D

 31 31  0  0  1  0  0  0  0  0999 V2000
  132.7530  136.3680  147.8000 C   0  0  0  0  0  0  0  0  0  0  0  0
  132.7050  137.0410  149.0250 C   0  0  0  0  0  3  0  0  0  0  0  0
  132.8400  136.3430  150.2290 C   0  0  0  0  0  3  0  0  0  0  0  0
  133.0290  134.9580  150.2370 C   0  0  0  0  0  0  0  0  0  0  0  0
  133.0730  134.2710  149.0120 C   0  0  0  0  0  0  0  0  0  0  0  0
  132.9740  134.9830  147.8050 C   0  0  0  0  0  3  0  0  0  0  0  0
  133.2570  132.9170  148.8520 O   0  0  0  0  0  0  0  0  0  0  0  0
  134.4350  132.5250  148.1510 C   0  0  0  0  0  1  0  0  0  0  0  0
  132.5490  137.1280  146.5210 C   0  0  0  0  0  2  0  0  0  0  0  0
  133.9390  138.5160  145.0660 C   0  0  0  0  0  0  0  0  0  0  0  0
  133.4670  138.0220  144.0460 O   0  0  0  0  0  0  0  0  0  0  0  0
  133.5340  138.1630  146.3330 N   0  0  0  0  0  0  0  0  0  0  0  0
  133.9190  138.6200  147.1160 H   0  0  0  0  0  0  0  0  0  0  0  0
  135.0180  139.5790  145.0230 C   0  0  0  0  0  2  0  0  0  0  0  0
  136.3670  138.9690  144.6560 C   0  0  0  0  0  2  0  0  0  0  0  0
  137.1150  138.4470  145.8790 C   0  0  0  0  0  2  0  0  0  0  0  0
  137.0060  139.4520  147.0250 C   0  0  0  0  0  2  0  0  0  0  0  0
  138.0420  139.1760  148.1110 C   0  0  0  0  0  2  0  0  0  0  0  0
  137.3860  138.5510  149.3400 C   0  0  0  0  0  2  0  0  0  0  0  0
  137.7740  137.2640  151.4630 C   0  0  0  0  0  1  0  0  0  0  0  0
  138.4130  137.8230  150.2030 C   0  0  0  0  0  2  0  0  0  0  0  0
  133.2200  134.2330  151.3770 O   0  0  0  0  0  0  0  0  0  0  0  0
  134.3320  134.5540  152.2180 C   0  0  0  0  0  2  0  0  0  0  0  0
  133.8040  134.6760  153.6560 C   0  0  1  0  0  3  0  0  0  0  0  0
  133.9950  133.4290  154.3340 O   0  0  0  0  0  0  0  0  0  0  0  0
  133.1990  133.2150  154.8460 H   0  0  0  0  0  0  0  0  0  0  0  0
  134.4970  135.7720  154.4740 C   0  0  0  0  0  2  0  0  0  0  0  0
  136.0090  135.7710  154.3020 C   0  0  0  0  0  2  0  0  0  0  0  0
  136.6620  136.6760  155.3110 C   0  0  0  0  0  0  0  0  0  0  0  0
  136.4580  137.8840  155.3710 O   0  0  0  0  0  0  0  0  0  0  0  0
  137.4760  136.0290  156.1650 O   0  0  0  0  0  1  0  0  0  0  0  0
  1  6  2  0  0  0  0
  1  2  1  0  0  0  0
  2  3  2  0  0  0  0
  3  4  1  0  0  0  0
  4 22  1  0  0  0  0
  5  4  2  0  0  0  0
  6  5  1  0  0  0  0
  7  5  1  0  0  0  0
  8  7  1  0  0  0  0
  9  1  1  0  0  0  0
 10 12  1  0  0  0  0
 11 10  2  0  0  0  0
 12  9  1  0  0  0  0
 12 13  1  0  0  0  0
 14 10  1  0  0  0  0
 15 14  1  0  0  0  0
 15 16  1  0  0  0  0
 16 17  1  0  0  0  0
 17 18  1  0  0  0  0
 18 19  1  0  0  0  0
 19 21  1  0  0  0  0
 21 20  1  0  0  0  0
 22 23  1  0  0  0  0
 24 23  1  6  0  0  0
 24 25  1  0  0  0  0
 24 27  1  0  0  0  0
 25 26  1  0  0  0  0
 28 27  1  0  0  0  0
 28 29  1  0  0  0  0
 29 30  2  0  0  0  0
 29 31  1  0  0  0  0
M  END
>  <MODEL>
7

>  <REMARK>
 VINA RESULT:    -5.970      6.275      9.177
 INTER + INTRA:         -13.911
 INTER:                 -12.486
 INTRA:                  -1.425
 UNBOUND:                -2.183
  Name = CHEMBL1205991
  19 active torsions:
  status: ('A' for Active; 'I' for Inactive)
    1  A    between atoms: C_1  and  C_2
    2  A    between atoms: C_2  and  C_3
    3  A    between atoms: C_3  and  C_4
    4  A    between atoms: C_4  and  C_5
    5  A    between atoms: C_5  and  C_6
    6  A    between atoms: C_6  and  C_7
    7  A    between atoms: C_7  and  C_8
    8  A    between atoms: C_8  and  C_9
    9  A    between atoms: N_11  and  C_12
   10  A    between atoms: C_12  and  C_13
   11  A    between atoms: C_16  and  O_17
   12  A    between atoms: O_17  and  C_18
   13  A    between atoms: C_18  and  C_19
   14  A    between atoms: C_19  and  O_20
   15  A    between atoms: C_19  and  C_21
   16  A    between atoms: C_21  and  C_22
   17  A    between atoms: C_22  and  C_23
   18  A    between atoms: C_26  and  O_27
   19  A    between atoms: O_27  and  C_28
                            x       y       z     vdW  Elec       q    Type
                         _______ _______ _______ _____ _____    ______ ____

>  <TORSDO>
F 17

>  <SCORE>
-5.970

>  <RMSD_LB>
6.275

>  <RMSD_UB>
9.177

$$$$
CHEMBL1205991
 OpenBabel10172500483D

 31 31  0  0  1  0  0  0  0  0999 V2000
  139.9090  138.5030  153.9960 C   0  0  0  0  0  0  0  0  0  0  0  0
  140.8660  138.9860  154.8930 C   0  0  0  0  0  3  0  0  0  0  0  0
  142.2300  138.9030  154.5950 C   0  0  0  0  0  3  0  0  0  0  0  0
  142.6670  138.3420  153.3910 C   0  0  0  0  0  0  0  0  0  0  0  0
  141.7130  137.8490  152.4850 C   0  0  0  0  0  0  0  0  0  0  0  0
  140.3440  137.9670  152.7760 C   0  0  0  0  0  3  0  0  0  0  0  0
  141.9800  137.2740  151.2640 O   0  0  0  0  0  0  0  0  0  0  0  0
  140.8520  137.0380  150.4250 C   0  0  0  0  0  1  0  0  0  0  0  0
  138.4520  138.5490  154.3610 C   0  0  0  0  0  2  0  0  0  0  0  0
  136.6950  136.9430  154.9190 C   0  0  0  0  0  0  0  0  0  0  0  0
  136.1900  137.6960  155.7470 O   0  0  0  0  0  0  0  0  0  0  0  0
  137.7950  137.2810  154.1650 N   0  0  0  0  0  0  0  0  0  0  0  0
  138.1360  136.6540  153.4860 H   0  0  0  0  0  0  0  0  0  0  0  0
  136.1420  135.5600  154.6420 C   0  0  0  0  0  2  0  0  0  0  0  0
  134.7520  135.6450  154.0200 C   0  0  0  0  0  2  0  0  0  0  0  0
  134.8090  135.8490  152.5090 C   0  0  0  0  0  2  0  0  0  0  0  0
  135.9850  135.0690  151.9220 C   0  0  0  0  0  2  0  0  0  0  0  0
  135.5880  134.3360  150.6440 C   0  0  0  0  0  2  0  0  0  0  0  0
  134.3320  133.4970  150.8680 C   0  0  0  0  0  2  0  0  0  0  0  0
  132.9020  133.6660  148.8090 C   0  0  0  0  0  1  0  0  0  0  0  0
  133.8910  132.8080  149.5800 C   0  0  0  0  0  2  0  0  0  0  0  0
  143.9800  138.2840  153.0230 O   0  0  0  0  0  0  0  0  0  0  0  0
  144.9840  138.5190  154.0140 C   0  0  0  0  0  2  0  0  0  0  0  0
  145.7420  139.7930  153.6110 C   0  0  1  0  0  3  0  0  0  0  0  0
  145.3160  140.8760  154.4460 O   0  0  0  0  0  0  0  0  0  0  0  0
  144.3640  140.8000  154.6120 H   0  0  0  0  0  0  0  0  0  0  0  0
  147.2650  139.6670  153.7360 C   0  0  0  0  0  2  0  0  0  0  0  0
  148.0130  140.4650  152.6780 C   0  0  0  0  0  2  0  0  0  0  0  0
  148.7190  141.6400  153.2970 C   0  0  0  0  0  0  0  0  0  0  0  0
  149.6390  142.2430  152.7530 O   0  0  0  0  0  0  0  0  0  0  0  0
  148.2280  141.9910  154.5000 O   0  0  0  0  0  1  0  0  0  0  0  0
  1  9  1  0  0  0  0
  1  2  1  0  0  0  0
  3  2  2  0  0  0  0
  4  3  1  0  0  0  0
  5  6  1  0  0  0  0
  5  4  2  0  0  0  0
  6  1  2  0  0  0  0
  7  5  1  0  0  0  0
  8  7  1  0  0  0  0
 10 11  2  0  0  0  0
 12  9  1  0  0  0  0
 12 10  1  0  0  0  0
 13 12  1  0  0  0  0
 14 10  1  0  0  0  0
 15 14  1  0  0  0  0
 16 15  1  0  0  0  0
 17 16  1  0  0  0  0
 18 19  1  0  0  0  0
 18 17  1  0  0  0  0
 20 21  1  0  0  0  0
 21 19  1  0  0  0  0
 22  4  1  0  0  0  0
 22 23  1  0  0  0  0
 24 27  1  1  0  0  0
 24 23  1  0  0  0  0
 24 25  1  0  0  0  0
 25 26  1  0  0  0  0
 28 29  1  0  0  0  0
 28 27  1  0  0  0  0
 29 31  1  0  0  0  0
 30 29  2  0  0  0  0
M  END
>  <MODEL>
8

>  <REMARK>
 VINA RESULT:    -5.931      3.534     10.609
 INTER + INTRA:         -13.834
 INTER:                 -12.532
 INTRA:                  -1.303
 UNBOUND:                -2.183
  Name = CHEMBL1205991
  19 active torsions:
  status: ('A' for Active; 'I' for Inactive)
    1  A    between atoms: C_1  and  C_2
    2  A    between atoms: C_2  and  C_3
    3  A    between atoms: C_3  and  C_4
    4  A    between atoms: C_4  and  C_5
    5  A    between atoms: C_5  and  C_6
    6  A    between atoms: C_6  and  C_7
    7  A    between atoms: C_7  and  C_8
    8  A    between atoms: C_8  and  C_9
    9  A    between atoms: N_11  and  C_12
   10  A    between atoms: C_12  and  C_13
   11  A    between atoms: C_16  and  O_17
   12  A    between atoms: O_17  and  C_18
   13  A    between atoms: C_18  and  C_19
   14  A    between atoms: C_19  and  O_20
   15  A    between atoms: C_19  and  C_21
   16  A    between atoms: C_21  and  C_22
   17  A    between atoms: C_22  and  C_23
   18  A    between atoms: C_26  and  O_27
   19  A    between atoms: O_27  and  C_28
                            x       y       z     vdW  Elec       q    Type
                         _______ _______ _______ _____ _____    ______ ____

>  <TORSDO>
F 17

>  <SCORE>
-5.931

>  <RMSD_LB>
3.534

>  <RMSD_UB>
10.609

$$$$
CHEMBL1205991
 OpenBabel10172500483D

 31 31  0  0  1  0  0  0  0  0999 V2000
  142.4610  137.7060  152.2480 C   0  0  0  0  0  0  0  0  0  0  0  0
  142.7270  137.6920  153.6210 C   0  0  0  0  0  3  0  0  0  0  0  0
  141.7560  138.0970  154.5410 C   0  0  0  0  0  3  0  0  0  0  0  0
  140.4950  138.5190  154.1120 C   0  0  0  0  0  0  0  0  0  0  0  0
  140.2170  138.5420  152.7340 C   0  0  0  0  0  0  0  0  0  0  0  0
  141.1860  138.1000  151.8180 C   0  0  0  0  0  3  0  0  0  0  0  0
  139.0300  138.9250  152.1550 O   0  0  0  0  0  0  0  0  0  0  0  0
  139.1370  139.7500  150.9980 C   0  0  0  0  0  1  0  0  0  0  0  0
  143.5370  137.3220  151.2740 C   0  0  0  0  0  2  0  0  0  0  0  0
  143.1660  136.5110  148.9970 C   0  0  0  0  0  0  0  0  0  0  0  0
  143.6180  137.5370  148.4970 O   0  0  0  0  0  0  0  0  0  0  0  0
  143.1080  136.2970  150.3550 N   0  0  0  0  0  0  0  0  0  0  0  0
  142.7720  135.4390  150.7020 H   0  0  0  0  0  0  0  0  0  0  0  0
  142.6320  135.3700  148.1560 C   0  0  0  0  0  2  0  0  0  0  0  0
  141.1200  135.2440  148.3080 C   0  0  0  0  0  2  0  0  0  0  0  0
  140.3700  136.2950  147.4940 C   0  0  0  0  0  2  0  0  0  0  0  0
  139.4410  137.0950  148.4070 C   0  0  0  0  0  2  0  0  0  0  0  0
  138.8670  136.2250  149.5220 C   0  0  0  0  0  2  0  0  0  0  0  0
  137.6690  135.4210  149.0200 C   0  0  0  0  0  2  0  0  0  0  0  0
  136.8500  136.3600  151.2020 C   0  0  0  0  0  1  0  0  0  0  0  0
  136.5140  135.4710  150.0160 C   0  0  0  0  0  2  0  0  0  0  0  0
  139.4900  138.8730  154.9650 O   0  0  0  0  0  0  0  0  0  0  0  0
  138.9870  137.8940  155.8800 C   0  0  0  0  0  2  0  0  0  0  0  0
  137.4630  137.8310  155.6970 C   0  0  1  0  0  3  0  0  0  0  0  0
  137.0010  139.0830  155.1770 O   0  0  0  0  0  0  0  0  0  0  0  0
  136.6090  139.6060  155.8930 H   0  0  0  0  0  0  0  0  0  0  0  0
  137.0040  136.7220  154.7430 C   0  0  0  0  0  2  0  0  0  0  0  0
  136.0880  135.7080  155.4140 C   0  0  0  0  0  2  0  0  0  0  0  0
  134.7380  135.6880  154.7500 C   0  0  0  0  0  0  0  0  0  0  0  0
  134.4340  136.4130  153.8090 O   0  0  0  0  0  0  0  0  0  0  0  0
  133.8960  134.7770  155.2710 O   0  0  0  0  0  1  0  0  0  0  0  0
  1  2  1  0  0  0  0
  2  3  2  0  0  0  0
  4  3  1  0  0  0  0
  4 22  1  0  0  0  0
  5  4  2  0  0  0  0
  6  1  2  0  0  0  0
  6  5  1  0  0  0  0
  7  5  1  0  0  0  0
  8  7  1  0  0  0  0
  9  1  1  0  0  0  0
 10 12  1  0  0  0  0
 11 10  2  0  0  0  0
 12 13  1  0  0  0  0
 12  9  1  0  0  0  0
 14 15  1  0  0  0  0
 14 10  1  0  0  0  0
 16 15  1  0  0  0  0
 16 17  1  0  0  0  0
 17 18  1  0  0  0  0
 19 18  1  0  0  0  0
 19 21  1  0  0  0  0
 21 20  1  0  0  0  0
 22 23  1  0  0  0  0
 24 27  1  6  0  0  0
 24 23  1  0  0  0  0
 25 24  1  0  0  0  0
 25 26  1  0  0  0  0
 27 28  1  0  0  0  0
 29 31  1  0  0  0  0
 29 28  1  0  0  0  0
 30 29  2  0  0  0  0
M  END
>  <MODEL>
9

>  <REMARK>
 VINA RESULT:    -5.817      3.129      5.788
 INTER + INTRA:         -13.611
 INTER:                 -11.428
 INTRA:                  -2.183
 UNBOUND:                -2.183
  Name = CHEMBL1205991
  19 active torsions:
  status: ('A' for Active; 'I' for Inactive)
    1  A    between atoms: C_1  and  C_2
    2  A    between atoms: C_2  and  C_3
    3  A    between atoms: C_3  and  C_4
    4  A    between atoms: C_4  and  C_5
    5  A    between atoms: C_5  and  C_6
    6  A    between atoms: C_6  and  C_7
    7  A    between atoms: C_7  and  C_8
    8  A    between atoms: C_8  and  C_9
    9  A    between atoms: N_11  and  C_12
   10  A    between atoms: C_12  and  C_13
   11  A    between atoms: C_16  and  O_17
   12  A    between atoms: O_17  and  C_18
   13  A    between atoms: C_18  and  C_19
   14  A    between atoms: C_19  and  O_20
   15  A    between atoms: C_19  and  C_21
   16  A    between atoms: C_21  and  C_22
   17  A    between atoms: C_22  and  C_23
   18  A    between atoms: C_26  and  O_27
   19  A    between atoms: O_27  and  C_28
                            x       y       z     vdW  Elec       q    Type
                         _______ _______ _______ _____ _____    ______ ____

>  <TORSDO>
F 17

>  <SCORE>
-5.817

>  <RMSD_LB>
3.129

>  <RMSD_UB>
5.788

$$$$
