CHEMBL1098226
 OpenBabel10162523353D

 27 28  0  0  1  0  0  0  0  0999 V2000
  142.6150  139.6390  154.2580 N   0  0  0  0  0  0  0  0  0  0  0  0
  143.8440  139.3190  153.7410 C   0  0  0  0  0  0  0  0  0  0  0  0
  144.3120  138.1910  153.7370 O   0  0  0  0  0  0  0  0  0  0  0  0
  144.4900  140.4270  153.2600 N   0  0  0  0  0  0  0  0  0  0  0  0
  142.2750  140.5570  154.1600 H   0  0  0  0  0  0  0  0  0  0  0  0
  143.9960  141.2790  153.2590 H   0  0  0  0  0  0  0  0  0  0  0  0
  145.8640  140.4370  152.7480 C   0  0  2  0  0  3  0  0  0  0  0  0
  146.7800  141.1830  153.7430 C   0  0  0  0  0  2  0  0  0  0  0  0
  148.2360  141.2610  153.2850 C   0  0  2  0  0  3  0  0  0  0  0  0
  149.0700  142.0800  154.2710 C   0  0  0  0  0  1  0  0  0  0  0  0
  148.3060  141.8830  151.8940 C   0  0  0  0  0  2  0  0  0  0  0  0
  147.4790  141.0890  150.8940 C   0  0  0  0  0  2  0  0  0  0  0  0
  145.9830  140.9490  151.2770 C   0  0  1  0  0  3  0  0  0  0  0  0
  145.2780  140.0370  150.2030 C   0  0  0  0  0  3  0  0  0  0  0  0
  143.7720  140.3400  150.1020 C   0  0  0  0  0  1  0  0  0  0  0  0
  145.4220  138.5280  150.4210 C   0  0  0  0  0  1  0  0  0  0  0  0
  141.8080  138.6480  154.9470 C   0  0  0  0  0  2  0  0  0  0  0  0
  138.1260  137.9160  154.2160 C   0  0  0  0  0  0  0  0  0  0  0  0
  139.3180  138.2250  154.8770 C   0  0  0  0  0  3  0  0  0  0  0  0
  140.5420  138.3090  154.1920 C   0  0  0  0  0  0  0  0  0  0  0  0
  140.5620  138.0430  152.8170 C   0  0  0  0  0  3  0  0  0  0  0  0
  139.3800  137.7140  152.1440 C   0  0  0  0  0  3  0  0  0  0  0  0
  138.1730  137.6600  152.8430 C   0  0  0  0  0  0  0  0  0  0  0  0
  136.7660  136.9120  155.8910 C   0  0  0  0  0  1  0  0  0  0  0  0
  136.8980  137.8420  154.8220 O   0  0  0  0  0  0  0  0  0  0  0  0
  137.0160  137.3460  152.1810 O   0  0  0  0  0  0  0  0  0  0  0  0
  136.8820  137.6480  151.3040 H   0  0  0  0  0  0  0  0  0  0  0  0
  1 17  1  0  0  0  0
  2  1  1  0  0  0  0
  3  2  2  0  0  0  0
  4  2  1  0  0  0  0
  5  1  1  0  0  0  0
  6  4  1  0  0  0  0
  7  4  1  1  0  0  0
  7  8  1  0  0  0  0
  9  8  1  0  0  0  0
  9 10  1  1  0  0  0
 11  9  1  0  0  0  0
 12 13  1  0  0  0  0
 12 11  1  0  0  0  0
 13 14  1  6  0  0  0
 13  7  1  0  0  0  0
 14 16  1  0  0  0  0
 15 14  1  0  0  0  0
 18 25  1  0  0  0  0
 18 19  1  0  0  0  0
 20 19  2  0  0  0  0
 20 17  1  0  0  0  0
 21 20  1  0  0  0  0
 22 21  2  0  0  0  0
 22 23  1  0  0  0  0
 23 18  2  0  0  0  0
 25 24  1  0  0  0  0
 26 23  1  0  0  0  0
 27 26  1  0  0  0  0
M  END
>  <MODEL>
1

>  <REMARK>
 VINA RESULT:    -7.595      0.000      0.000
 INTER + INTRA:         -10.781
 INTER:                 -10.141
 INTRA:                  -0.639
 UNBOUND:                -0.744
  Name = CHEMBL1098226
  10 active torsions:
  status: ('A' for Active; 'I' for Inactive)
    1  A    between atoms: C_1  and  O_2
    2  A    between atoms: O_2  and  C_3
    3  A    between atoms: C_5  and  C_6
    4  A    between atoms: C_6  and  N_7
    5  A    between atoms: N_10  and  C_11
    6  A    between atoms: C_13  and  C_14
    7  A    between atoms: C_17  and  C_18
    8  A    between atoms: C_18  and  C_19
    9  A    between atoms: C_18  and  C_20
   10  A    between atoms: C_23  and  O_24
                            x       y       z     vdW  Elec       q    Type
                         _______ _______ _______ _____ _____    ______ ____

>  <TORSDO>
F 6

>  <SCORE>
-7.595

>  <RMSD_LB>
0.000

>  <RMSD_UB>
0.000

$$$$
CHEMBL1098226
 OpenBabel10162523353D

 27 28  0  0  1  0  0  0  0  0999 V2000
  142.2110  139.4180  152.6580 N   0  0  0  0  0  0  0  0  0  0  0  0
  143.5130  138.9920  152.5790 C   0  0  0  0  0  0  0  0  0  0  0  0
  143.8480  137.8850  152.1870 O   0  0  0  0  0  0  0  0  0  0  0  0
  144.3810  139.9530  153.0250 N   0  0  0  0  0  0  0  0  0  0  0  0
  142.0220  140.3480  152.9160 H   0  0  0  0  0  0  0  0  0  0  0  0
  144.0070  140.8320  153.2640 H   0  0  0  0  0  0  0  0  0  0  0  0
  145.8280  139.7660  153.1750 C   0  0  2  0  0  3  0  0  0  0  0  0
  146.1230  139.0950  154.5340 C   0  0  0  0  0  2  0  0  0  0  0  0
  147.6140  138.8740  154.7900 C   0  0  2  0  0  3  0  0  0  0  0  0
  147.8420  138.2840  156.1820 C   0  0  0  0  0  1  0  0  0  0  0  0
  148.3620  140.1960  154.6500 C   0  0  0  0  0  2  0  0  0  0  0  0
  148.1460  140.8080  153.2740 C   0  0  0  0  0  2  0  0  0  0  0  0
  146.6590  141.0640  152.9200 C   0  0  1  0  0  3  0  0  0  0  0  0
  146.5870  141.6120  151.4440 C   0  0  0  0  0  3  0  0  0  0  0  0
  147.9400  142.1910  150.9880 C   0  0  0  0  0  1  0  0  0  0  0  0
  145.5270  142.6870  151.1900 C   0  0  0  0  0  1  0  0  0  0  0  0
  141.1080  138.5190  152.3680 C   0  0  0  0  0  2  0  0  0  0  0  0
  138.1350  137.6310  154.6040 C   0  0  0  0  0  0  0  0  0  0  0  0
  138.9170  137.9460  153.4910 C   0  0  0  0  0  3  0  0  0  0  0  0
  140.2990  138.1830  153.6010 C   0  0  0  0  0  0  0  0  0  0  0  0
  140.8890  138.1330  154.8700 C   0  0  0  0  0  3  0  0  0  0  0  0
  140.1150  137.8380  155.9980 C   0  0  0  0  0  3  0  0  0  0  0  0
  138.7500  137.5830  155.8590 C   0  0  0  0  0  0  0  0  0  0  0  0
  136.3830  136.2420  153.7890 C   0  0  0  0  0  1  0  0  0  0  0  0
  136.7900  137.3660  154.5590 O   0  0  0  0  0  0  0  0  0  0  0  0
  137.9960  137.2850  156.9630 O   0  0  0  0  0  0  0  0  0  0  0  0
  137.4330  136.5360  156.9560 H   0  0  0  0  0  0  0  0  0  0  0  0
  1  5  1  0  0  0  0
  2  1  1  0  0  0  0
  2  4  1  0  0  0  0
  3  2  2  0  0  0  0
  4  6  1  0  0  0  0
  7  4  1  1  0  0  0
  7  8  1  0  0  0  0
  8  9  1  0  0  0  0
  9 10  1  1  0  0  0
 11  9  1  0  0  0  0
 12 11  1  0  0  0  0
 13 14  1  6  0  0  0
 13  7  1  0  0  0  0
 13 12  1  0  0  0  0
 15 14  1  0  0  0  0
 16 14  1  0  0  0  0
 17  1  1  0  0  0  0
 17 20  1  0  0  0  0
 18 23  1  0  0  0  0
 19 20  1  0  0  0  0
 19 18  2  0  0  0  0
 20 21  2  0  0  0  0
 21 22  1  0  0  0  0
 23 22  2  0  0  0  0
 23 26  1  0  0  0  0
 24 25  1  0  0  0  0
 25 18  1  0  0  0  0
 27 26  1  0  0  0  0
M  END
>  <MODEL>
2

>  <REMARK>
 VINA RESULT:    -7.539      1.619      2.698
 INTER + INTRA:         -10.707
 INTER:                 -10.096
 INTRA:                  -0.612
 UNBOUND:                -0.744
  Name = CHEMBL1098226
  10 active torsions:
  status: ('A' for Active; 'I' for Inactive)
    1  A    between atoms: C_1  and  O_2
    2  A    between atoms: O_2  and  C_3
    3  A    between atoms: C_5  and  C_6
    4  A    between atoms: C_6  and  N_7
    5  A    between atoms: N_10  and  C_11
    6  A    between atoms: C_13  and  C_14
    7  A    between atoms: C_17  and  C_18
    8  A    between atoms: C_18  and  C_19
    9  A    between atoms: C_18  and  C_20
   10  A    between atoms: C_23  and  O_24
                            x       y       z     vdW  Elec       q    Type
                         _______ _______ _______ _____ _____    ______ ____

>  <TORSDO>
F 6

>  <SCORE>
-7.539

>  <RMSD_LB>
1.619

>  <RMSD_UB>
2.698

$$$$
CHEMBL1098226
 OpenBabel10162523353D

 27 28  0  0  1  0  0  0  0  0999 V2000
  133.9710  135.3720  152.7700 N   0  0  0  0  0  0  0  0  0  0  0  0
  134.5020  134.8610  153.9260 C   0  0  0  0  0  0  0  0  0  0  0  0
  134.2840  133.7310  154.3370 O   0  0  0  0  0  0  0  0  0  0  0  0
  135.2780  135.7860  154.5730 N   0  0  0  0  0  0  0  0  0  0  0  0
  134.2480  136.2660  152.4650 H   0  0  0  0  0  0  0  0  0  0  0  0
  135.4330  136.6470  154.1220 H   0  0  0  0  0  0  0  0  0  0  0  0
  135.8920  135.5860  155.8890 C   0  0  2  0  0  3  0  0  0  0  0  0
  134.8000  135.2160  156.9170 C   0  0  0  0  0  2  0  0  0  0  0  0
  135.3440  135.0050  158.3300 C   0  0  2  0  0  3  0  0  0  0  0  0
  134.2060  134.7240  159.3120 C   0  0  0  0  0  1  0  0  0  0  0  0
  136.1250  136.2390  158.7700 C   0  0  0  0  0  2  0  0  0  0  0  0
  137.2620  136.5450  157.8060 C   0  0  0  0  0  2  0  0  0  0  0  0
  136.8080  136.7690  156.3410 C   0  0  1  0  0  3  0  0  0  0  0  0
  138.0890  136.9870  155.4510 C   0  0  0  0  0  3  0  0  0  0  0  0
  139.3420  137.2340  156.3130 C   0  0  0  0  0  1  0  0  0  0  0  0
  138.0040  138.1320  154.4390 C   0  0  0  0  0  1  0  0  0  0  0  0
  133.0060  134.6190  151.9880 C   0  0  0  0  0  2  0  0  0  0  0  0
  133.1430  134.5350  148.1660 C   0  0  0  0  0  0  0  0  0  0  0  0
  133.1860  134.1550  149.5100 C   0  0  0  0  0  3  0  0  0  0  0  0
  132.9510  135.0750  150.5460 C   0  0  0  0  0  0  0  0  0  0  0  0
  132.7010  136.4120  150.2130 C   0  0  0  0  0  3  0  0  0  0  0  0
  132.6720  136.8130  148.8730 C   0  0  0  0  0  3  0  0  0  0  0  0
  132.8850  135.8740  147.8610 C   0  0  0  0  0  0  0  0  0  0  0  0
  134.6430  133.1340  146.9640 C   0  0  0  0  0  1  0  0  0  0  0  0
  133.3390  133.6820  147.1110 O   0  0  0  0  0  0  0  0  0  0  0  0
  132.8480  136.2670  146.5490 O   0  0  0  0  0  0  0  0  0  0  0  0
  132.0300  136.4900  146.1510 H   0  0  0  0  0  0  0  0  0  0  0  0
  1  2  1  0  0  0  0
  2  3  2  0  0  0  0
  2  4  1  0  0  0  0
  5  1  1  0  0  0  0
  6  4  1  0  0  0  0
  7  4  1  6  0  0  0
  7 13  1  0  0  0  0
  7  8  1  0  0  0  0
  8  9  1  0  0  0  0
  9 11  1  0  0  0  0
  9 10  1  1  0  0  0
 12 11  1  0  0  0  0
 13 14  1  6  0  0  0
 13 12  1  0  0  0  0
 14 15  1  0  0  0  0
 16 14  1  0  0  0  0
 17  1  1  0  0  0  0
 18 19  1  0  0  0  0
 19 20  2  0  0  0  0
 20 17  1  0  0  0  0
 21 20  1  0  0  0  0
 22 21  2  0  0  0  0
 23 18  2  0  0  0  0
 23 22  1  0  0  0  0
 24 25  1  0  0  0  0
 25 18  1  0  0  0  0
 26 23  1  0  0  0  0
 27 26  1  0  0  0  0
M  END
>  <MODEL>
3

>  <REMARK>
 VINA RESULT:    -7.364      7.366     10.804
 INTER + INTRA:         -10.476
 INTER:                 -10.196
 INTRA:                  -0.280
 UNBOUND:                -0.744
  Name = CHEMBL1098226
  10 active torsions:
  status: ('A' for Active; 'I' for Inactive)
    1  A    between atoms: C_1  and  O_2
    2  A    between atoms: O_2  and  C_3
    3  A    between atoms: C_5  and  C_6
    4  A    between atoms: C_6  and  N_7
    5  A    between atoms: N_10  and  C_11
    6  A    between atoms: C_13  and  C_14
    7  A    between atoms: C_17  and  C_18
    8  A    between atoms: C_18  and  C_19
    9  A    between atoms: C_18  and  C_20
   10  A    between atoms: C_23  and  O_24
                            x       y       z     vdW  Elec       q    Type
                         _______ _______ _______ _____ _____    ______ ____

>  <TORSDO>
F 6

>  <SCORE>
-7.364

>  <RMSD_LB>
7.366

>  <RMSD_UB>
10.804

$$$$
CHEMBL1098226
 OpenBabel10162523353D

 27 28  0  0  1  0  0  0  0  0999 V2000
  138.9790  136.6260  150.2930 N   0  0  0  0  0  0  0  0  0  0  0  0
  137.6370  136.8250  150.0950 C   0  0  0  0  0  0  0  0  0  0  0  0
  137.1200  137.9240  149.9600 O   0  0  0  0  0  0  0  0  0  0  0  0
  136.9490  135.6400  150.1000 N   0  0  0  0  0  0  0  0  0  0  0  0
  139.3320  135.7080  150.3210 H   0  0  0  0  0  0  0  0  0  0  0  0
  137.4720  134.8080  150.1570 H   0  0  0  0  0  0  0  0  0  0  0  0
  135.4890  135.5220  150.0270 C   0  0  2  0  0  3  0  0  0  0  0  0
  134.9770  136.2210  148.7490 C   0  0  0  0  0  2  0  0  0  0  0  0
  133.4580  136.1660  148.5950 C   0  0  2  0  0  3  0  0  0  0  0  0
  133.0110  136.9450  147.3570 C   0  0  0  0  0  1  0  0  0  0  0  0
  132.7920  136.7360  149.8430 C   0  0  0  0  0  2  0  0  0  0  0  0
  133.2250  135.9810  151.0910 C   0  0  0  0  0  2  0  0  0  0  0  0
  134.7560  135.9760  151.3300 C   0  0  1  0  0  3  0  0  0  0  0  0
  135.0580  135.0910  152.5980 C   0  0  0  0  0  3  0  0  0  0  0  0
  133.7820  134.8190  153.4160 C   0  0  0  0  0  1  0  0  0  0  0  0
  136.1030  135.6570  153.5650 C   0  0  0  0  0  1  0  0  0  0  0  0
  139.8880  137.7460  150.4620 C   0  0  0  0  0  2  0  0  0  0  0  0
  139.8490  138.5570  154.1990 C   0  0  0  0  0  0  0  0  0  0  0  0
  139.4630  138.3980  152.8660 C   0  0  0  0  0  3  0  0  0  0  0  0
  140.3490  137.9030  151.8930 C   0  0  0  0  0  0  0  0  0  0  0  0
  141.6610  137.5950  152.2750 C   0  0  0  0  0  3  0  0  0  0  0  0
  142.0690  137.7660  153.6030 C   0  0  0  0  0  3  0  0  0  0  0  0
  141.1630  138.2380  154.5550 C   0  0  0  0  0  0  0  0  0  0  0  0
  137.8700  138.2340  155.4790 C   0  0  0  0  0  1  0  0  0  0  0  0
  139.0270  139.0120  155.1970 O   0  0  0  0  0  0  0  0  0  0  0  0
  141.5610  138.3960  155.8550 O   0  0  0  0  0  0  0  0  0  0  0  0
  141.1440  137.9050  156.5350 H   0  0  0  0  0  0  0  0  0  0  0  0
  1  5  1  0  0  0  0
  1 17  1  0  0  0  0
  2  4  1  0  0  0  0
  2  1  1  0  0  0  0
  3  2  2  0  0  0  0
  4  6  1  0  0  0  0
  7  4  1  1  0  0  0
  7 13  1  0  0  0  0
  8  7  1  0  0  0  0
  9 10  1  6  0  0  0
  9  8  1  0  0  0  0
  9 11  1  0  0  0  0
 11 12  1  0  0  0  0
 12 13  1  0  0  0  0
 13 14  1  1  0  0  0
 14 15  1  0  0  0  0
 14 16  1  0  0  0  0
 17 20  1  0  0  0  0
 18 23  1  0  0  0  0
 18 25  1  0  0  0  0
 19 18  2  0  0  0  0
 20 21  2  0  0  0  0
 20 19  1  0  0  0  0
 21 22  1  0  0  0  0
 22 23  2  0  0  0  0
 23 26  1  0  0  0  0
 25 24  1  0  0  0  0
 26 27  1  0  0  0  0
M  END
>  <MODEL>
4

>  <REMARK>
 VINA RESULT:    -7.273      4.574      9.823
 INTER + INTRA:         -10.356
 INTER:                  -9.793
 INTRA:                  -0.563
 UNBOUND:                -0.744
  Name = CHEMBL1098226
  10 active torsions:
  status: ('A' for Active; 'I' for Inactive)
    1  A    between atoms: C_1  and  O_2
    2  A    between atoms: O_2  and  C_3
    3  A    between atoms: C_5  and  C_6
    4  A    between atoms: C_6  and  N_7
    5  A    between atoms: N_10  and  C_11
    6  A    between atoms: C_13  and  C_14
    7  A    between atoms: C_17  and  C_18
    8  A    between atoms: C_18  and  C_19
    9  A    between atoms: C_18  and  C_20
   10  A    between atoms: C_23  and  O_24
                            x       y       z     vdW  Elec       q    Type
                         _______ _______ _______ _____ _____    ______ ____

>  <TORSDO>
F 6

>  <SCORE>
-7.273

>  <RMSD_LB>
4.574

>  <RMSD_UB>
9.823

$$$$
CHEMBL1098226
 OpenBabel10162523353D

 27 28  0  0  1  0  0  0  0  0999 V2000
  142.6690  139.6590  154.3530 N   0  0  0  0  0  0  0  0  0  0  0  0
  143.9770  139.3990  154.0290 C   0  0  0  0  0  0  0  0  0  0  0  0
  144.6370  138.4980  154.5220 O   0  0  0  0  0  0  0  0  0  0  0  0
  144.4530  140.2960  153.1100 N   0  0  0  0  0  0  0  0  0  0  0  0
  142.1800  140.3570  153.8610 H   0  0  0  0  0  0  0  0  0  0  0  0
  143.8160  140.9470  152.7340 H   0  0  0  0  0  0  0  0  0  0  0  0
  145.8420  140.3580  152.6460 C   0  0  2  0  0  3  0  0  0  0  0  0
  146.7000  141.1130  153.6850 C   0  0  0  0  0  2  0  0  0  0  0  0
  148.1670  141.2450  153.2790 C   0  0  2  0  0  3  0  0  0  0  0  0
  148.9410  142.0720  154.3070 C   0  0  0  0  0  1  0  0  0  0  0  0
  148.2650  141.8940  151.9020 C   0  0  0  0  0  2  0  0  0  0  0  0
  147.4980  141.0930  150.8600 C   0  0  0  0  0  2  0  0  0  0  0  0
  145.9950  140.9000  151.1890 C   0  0  1  0  0  3  0  0  0  0  0  0
  145.3570  139.9860  150.0750 C   0  0  0  0  0  3  0  0  0  0  0  0
  143.8800  140.3450  149.8250 C   0  0  0  0  0  1  0  0  0  0  0  0
  145.4170  138.4790  150.3440 C   0  0  0  0  0  1  0  0  0  0  0  0
  141.9950  138.9230  155.4070 C   0  0  0  0  0  2  0  0  0  0  0  0
  138.9420  138.1730  153.2290 C   0  0  0  0  0  0  0  0  0  0  0  0
  140.1980  138.6070  153.6580 C   0  0  0  0  0  3  0  0  0  0  0  0
  140.6250  138.4380  154.9870 C   0  0  0  0  0  0  0  0  0  0  0  0
  139.7470  137.8480  155.9040 C   0  0  0  0  0  3  0  0  0  0  0  0
  138.4780  137.4240  155.4950 C   0  0  0  0  0  3  0  0  0  0  0  0
  138.0870  137.5820  154.1640 C   0  0  0  0  0  0  0  0  0  0  0  0
  138.9920  137.3650  150.9920 C   0  0  0  0  0  1  0  0  0  0  0  0
  138.4770  138.2870  151.9450 O   0  0  0  0  0  0  0  0  0  0  0  0
  136.8470  137.1580  153.7630 O   0  0  0  0  0  0  0  0  0  0  0  0
  136.7670  136.4140  153.2000 H   0  0  0  0  0  0  0  0  0  0  0  0
  1 17  1  0  0  0  0
  2  1  1  0  0  0  0
  2  3  2  0  0  0  0
  4  2  1  0  0  0  0
  5  1  1  0  0  0  0
  6  4  1  0  0  0  0
  7  4  1  1  0  0  0
  7  8  1  0  0  0  0
  9  8  1  0  0  0  0
  9 10  1  1  0  0  0
 11  9  1  0  0  0  0
 12 13  1  0  0  0  0
 12 11  1  0  0  0  0
 13 14  1  6  0  0  0
 13  7  1  0  0  0  0
 14 16  1  0  0  0  0
 15 14  1  0  0  0  0
 18 19  2  0  0  0  0
 18 23  1  0  0  0  0
 19 20  1  0  0  0  0
 20 17  1  0  0  0  0
 20 21  2  0  0  0  0
 22 21  1  0  0  0  0
 23 22  2  0  0  0  0
 24 25  1  0  0  0  0
 25 18  1  0  0  0  0
 26 23  1  0  0  0  0
 27 26  1  0  0  0  0
M  END
>  <MODEL>
5

>  <REMARK>
 VINA RESULT:    -7.253      0.783      1.745
 INTER + INTRA:         -10.329
 INTER:                  -9.758
 INTRA:                  -0.571
 UNBOUND:                -0.744
  Name = CHEMBL1098226
  10 active torsions:
  status: ('A' for Active; 'I' for Inactive)
    1  A    between atoms: C_1  and  O_2
    2  A    between atoms: O_2  and  C_3
    3  A    between atoms: C_5  and  C_6
    4  A    between atoms: C_6  and  N_7
    5  A    between atoms: N_10  and  C_11
    6  A    between atoms: C_13  and  C_14
    7  A    between atoms: C_17  and  C_18
    8  A    between atoms: C_18  and  C_19
    9  A    between atoms: C_18  and  C_20
   10  A    between atoms: C_23  and  O_24
                            x       y       z     vdW  Elec       q    Type
                         _______ _______ _______ _____ _____    ______ ____

>  <TORSDO>
F 6

>  <SCORE>
-7.253

>  <RMSD_LB>
0.783

>  <RMSD_UB>
1.745

$$$$
CHEMBL1098226
 OpenBabel10162523353D

 27 28  0  0  1  0  0  0  0  0999 V2000
  138.3710  137.4700  150.7720 N   0  0  0  0  0  0  0  0  0  0  0  0
  137.7330  136.6440  149.8820 C   0  0  0  0  0  0  0  0  0  0  0  0
  138.3030  135.8180  149.1850 O   0  0  0  0  0  0  0  0  0  0  0  0
  136.3850  136.8840  149.8520 N   0  0  0  0  0  0  0  0  0  0  0  0
  137.8360  138.0600  151.3500 H   0  0  0  0  0  0  0  0  0  0  0  0
  136.0220  137.5320  150.4990 H   0  0  0  0  0  0  0  0  0  0  0  0
  135.4430  136.2480  148.9260 C   0  0  2  0  0  3  0  0  0  0  0  0
  134.8620  137.3120  147.9690 C   0  0  0  0  0  2  0  0  0  0  0  0
  133.8520  136.7450  146.9730 C   0  0  2  0  0  3  0  0  0  0  0  0
  133.2560  137.8590  146.1120 C   0  0  0  0  0  1  0  0  0  0  0  0
  132.7460  136.0110  147.7220 C   0  0  0  0  0  2  0  0  0  0  0  0
  133.3130  134.8980  148.5910 C   0  0  0  0  0  2  0  0  0  0  0  0
  134.3560  135.3770  149.6340 C   0  0  1  0  0  3  0  0  0  0  0  0
  134.9160  134.1150  150.3930 C   0  0  0  0  0  3  0  0  0  0  0  0
  134.0960  132.8510  150.0720 C   0  0  0  0  0  1  0  0  0  0  0  0
  134.9800  134.2370  151.9190 C   0  0  0  0  0  1  0  0  0  0  0  0
  139.8190  137.4900  150.8740 C   0  0  0  0  0  2  0  0  0  0  0  0
  139.7570  138.2810  154.6160 C   0  0  0  0  0  0  0  0  0  0  0  0
  139.3610  138.0380  153.2990 C   0  0  0  0  0  3  0  0  0  0  0  0
  140.2930  137.7490  152.2870 C   0  0  0  0  0  0  0  0  0  0  0  0
  141.6550  137.7410  152.6130 C   0  0  0  0  0  3  0  0  0  0  0  0
  142.0700  138.0010  153.9230 C   0  0  0  0  0  3  0  0  0  0  0  0
  141.1220  138.2620  154.9150 C   0  0  0  0  0  0  0  0  0  0  0  0
  137.5320  138.1920  155.4550 C   0  0  0  0  0  1  0  0  0  0  0  0
  138.8970  138.5450  155.6500 O   0  0  0  0  0  0  0  0  0  0  0  0
  141.5300  138.5070  156.1990 O   0  0  0  0  0  0  0  0  0  0  0  0
  142.3750  138.8780  156.3590 H   0  0  0  0  0  0  0  0  0  0  0  0
  1 17  1  0  0  0  0
  1  5  1  0  0  0  0
  2  1  1  0  0  0  0
  3  2  2  0  0  0  0
  4  2  1  0  0  0  0
  4  6  1  0  0  0  0
  7 13  1  0  0  0  0
  7  4  1  1  0  0  0
  8  7  1  0  0  0  0
  9 10  1  1  0  0  0
  9 11  1  0  0  0  0
  9  8  1  0  0  0  0
 11 12  1  0  0  0  0
 12 13  1  0  0  0  0
 13 14  1  6  0  0  0
 14 16  1  0  0  0  0
 15 14  1  0  0  0  0
 17 20  1  0  0  0  0
 18 23  1  0  0  0  0
 18 25  1  0  0  0  0
 19 18  2  0  0  0  0
 20 21  2  0  0  0  0
 20 19  1  0  0  0  0
 21 22  1  0  0  0  0
 22 23  2  0  0  0  0
 23 26  1  0  0  0  0
 24 25  1  0  0  0  0
 26 27  1  0  0  0  0
M  END
>  <MODEL>
6

>  <REMARK>
 VINA RESULT:    -7.219      4.879     10.022
 INTER + INTRA:         -10.284
 INTER:                  -9.576
 INTRA:                  -0.708
 UNBOUND:                -0.744
  Name = CHEMBL1098226
  10 active torsions:
  status: ('A' for Active; 'I' for Inactive)
    1  A    between atoms: C_1  and  O_2
    2  A    between atoms: O_2  and  C_3
    3  A    between atoms: C_5  and  C_6
    4  A    between atoms: C_6  and  N_7
    5  A    between atoms: N_10  and  C_11
    6  A    between atoms: C_13  and  C_14
    7  A    between atoms: C_17  and  C_18
    8  A    between atoms: C_18  and  C_19
    9  A    between atoms: C_18  and  C_20
   10  A    between atoms: C_23  and  O_24
                            x       y       z     vdW  Elec       q    Type
                         _______ _______ _______ _____ _____    ______ ____

>  <TORSDO>
F 6

>  <SCORE>
-7.219

>  <RMSD_LB>
4.879

>  <RMSD_UB>
10.022

$$$$
CHEMBL1098226
 OpenBabel10162523353D

 27 28  0  0  1  0  0  0  0  0999 V2000
  138.4370  138.1430  156.2110 N   0  0  0  0  0  0  0  0  0  0  0  0
  139.6800  137.7210  155.8150 C   0  0  0  0  0  0  0  0  0  0  0  0
  140.3690  136.9350  156.4480 O   0  0  0  0  0  0  0  0  0  0  0  0
  140.0620  138.3160  154.6420 N   0  0  0  0  0  0  0  0  0  0  0  0
  137.9110  138.7230  155.6140 H   0  0  0  0  0  0  0  0  0  0  0  0
  139.4040  138.8900  154.1860 H   0  0  0  0  0  0  0  0  0  0  0  0
  141.3790  138.1630  154.0180 C   0  0  2  0  0  3  0  0  0  0  0  0
  142.4170  139.0110  154.7860 C   0  0  0  0  0  2  0  0  0  0  0  0
  143.8240  138.9290  154.1960 C   0  0  2  0  0  3  0  0  0  0  0  0
  144.7820  139.8510  154.9500 C   0  0  0  0  0  1  0  0  0  0  0  0
  143.7860  139.3050  152.7190 C   0  0  0  0  0  2  0  0  0  0  0  0
  142.8340  138.4050  151.9450 C   0  0  0  0  0  2  0  0  0  0  0  0
  141.3780  138.4160  152.4760 C   0  0  1  0  0  3  0  0  0  0  0  0
  140.5360  137.3790  151.6400 C   0  0  0  0  0  3  0  0  0  0  0  0
  141.2490  136.9970  150.3290 C   0  0  0  0  0  1  0  0  0  0  0  0
  139.1180  137.8250  151.2700 C   0  0  0  0  0  1  0  0  0  0  0  0
  137.8830  137.7510  157.4940 C   0  0  0  0  0  2  0  0  0  0  0  0
  135.3390  135.3700  155.9160 C   0  0  0  0  0  0  0  0  0  0  0  0
  136.3340  136.3360  156.0850 C   0  0  0  0  0  3  0  0  0  0  0  0
  136.8020  136.7010  157.3590 C   0  0  0  0  0  0  0  0  0  0  0  0
  136.2240  136.1000  158.4840 C   0  0  0  0  0  3  0  0  0  0  0  0
  135.2130  135.1450  158.3330 C   0  0  0  0  0  3  0  0  0  0  0  0
  134.7830  134.7820  157.0550 C   0  0  0  0  0  0  0  0  0  0  0  0
  134.0070  135.8560  154.0050 C   0  0  0  0  0  1  0  0  0  0  0  0
  134.8580  134.9540  154.7020 O   0  0  0  0  0  0  0  0  0  0  0  0
  133.7990  133.8400  156.9090 O   0  0  0  0  0  0  0  0  0  0  0  0
  132.9440  133.9980  157.2590 H   0  0  0  0  0  0  0  0  0  0  0  0
  1 17  1  0  0  0  0
  2  1  1  0  0  0  0
  2  3  2  0  0  0  0
  4  2  1  0  0  0  0
  5  1  1  0  0  0  0
  6  4  1  0  0  0  0
  7  4  1  1  0  0  0
  7  8  1  0  0  0  0
  9  8  1  0  0  0  0
  9 10  1  1  0  0  0
 11  9  1  0  0  0  0
 12 13  1  0  0  0  0
 12 11  1  0  0  0  0
 13 14  1  6  0  0  0
 13  7  1  0  0  0  0
 15 14  1  0  0  0  0
 16 14  1  0  0  0  0
 18 19  2  0  0  0  0
 18 23  1  0  0  0  0
 19 20  1  0  0  0  0
 20 17  1  0  0  0  0
 20 21  2  0  0  0  0
 22 21  1  0  0  0  0
 23 22  2  0  0  0  0
 24 25  1  0  0  0  0
 25 18  1  0  0  0  0
 26 23  1  0  0  0  0
 26 27  1  0  0  0  0
M  END
>  <MODEL>
7

>  <REMARK>
 VINA RESULT:    -7.169      3.138      5.327
 INTER + INTRA:         -10.218
 INTER:                  -9.596
 INTRA:                  -0.621
 UNBOUND:                -0.744
  Name = CHEMBL1098226
  10 active torsions:
  status: ('A' for Active; 'I' for Inactive)
    1  A    between atoms: C_1  and  O_2
    2  A    between atoms: O_2  and  C_3
    3  A    between atoms: C_5  and  C_6
    4  A    between atoms: C_6  and  N_7
    5  A    between atoms: N_10  and  C_11
    6  A    between atoms: C_13  and  C_14
    7  A    between atoms: C_17  and  C_18
    8  A    between atoms: C_18  and  C_19
    9  A    between atoms: C_18  and  C_20
   10  A    between atoms: C_23  and  O_24
                            x       y       z     vdW  Elec       q    Type
                         _______ _______ _______ _____ _____    ______ ____

>  <TORSDO>
F 6

>  <SCORE>
-7.169

>  <RMSD_LB>
3.138

>  <RMSD_UB>
5.327

$$$$
CHEMBL1098226
 OpenBabel10162523353D

 27 28  0  0  1  0  0  0  0  0999 V2000
  144.7720  140.9670  149.9280 N   0  0  0  0  0  0  0  0  0  0  0  0
  144.4620  139.6840  150.3030 C   0  0  0  0  0  0  0  0  0  0  0  0
  144.2750  139.3350  151.4580 O   0  0  0  0  0  0  0  0  0  0  0  0
  144.4200  138.8430  149.2230 N   0  0  0  0  0  0  0  0  0  0  0  0
  144.8380  141.1870  148.9710 H   0  0  0  0  0  0  0  0  0  0  0  0
  144.5280  139.2420  148.3280 H   0  0  0  0  0  0  0  0  0  0  0  0
  144.2280  137.3920  149.3010 C   0  0  2  0  0  3  0  0  0  0  0  0
  145.3660  136.6780  148.5400 C   0  0  0  0  0  2  0  0  0  0  0  0
  145.2420  135.1550  148.5510 C   0  0  2  0  0  3  0  0  0  0  0  0
  146.3500  134.5150  147.7140 C   0  0  0  0  0  1  0  0  0  0  0  0
  143.8750  134.7460  148.0140 C   0  0  0  0  0  2  0  0  0  0  0  0
  142.7530  135.3740  148.8270 C   0  0  0  0  0  2  0  0  0  0  0  0
  142.7980  136.9230  148.8800 C   0  0  1  0  0  3  0  0  0  0  0  0
  141.6370  137.4220  149.8210 C   0  0  0  0  0  3  0  0  0  0  0  0
  141.9150  137.0770  151.2960 C   0  0  0  0  0  1  0  0  0  0  0  0
  140.2410  136.8890  149.4870 C   0  0  0  0  0  1  0  0  0  0  0  0
  145.0060  142.0030  150.9180 C   0  0  0  0  0  2  0  0  0  0  0  0
  148.1500  141.7760  153.0830 C   0  0  0  0  0  0  0  0  0  0  0  0
  146.8230  141.7220  152.6520 C   0  0  0  0  0  3  0  0  0  0  0  0
  146.4550  142.0790  151.3420 C   0  0  0  0  0  0  0  0  0  0  0  0
  147.4500  142.5310  150.4660 C   0  0  0  0  0  3  0  0  0  0  0  0
  148.7820  142.6090  150.8880 C   0  0  0  0  0  3  0  0  0  0  0  0
  149.1240  142.2260  152.1860 C   0  0  0  0  0  0  0  0  0  0  0  0
  148.2990  140.0880  154.7530 C   0  0  0  0  0  1  0  0  0  0  0  0
  148.5750  141.4200  154.3370 O   0  0  0  0  0  0  0  0  0  0  0  0
  150.4290  142.2940  152.5950 O   0  0  0  0  0  0  0  0  0  0  0  0
  151.1010  142.5140  151.9800 H   0  0  0  0  0  0  0  0  0  0  0  0
  1  2  1  0  0  0  0
  1 17  1  0  0  0  0
  2  3  2  0  0  0  0
  4  2  1  0  0  0  0
  5  1  1  0  0  0  0
  6  4  1  0  0  0  0
  7  4  1  6  0  0  0
  8  9  1  0  0  0  0
  8  7  1  0  0  0  0
  9 10  1  6  0  0  0
 11  9  1  0  0  0  0
 11 12  1  0  0  0  0
 12 13  1  0  0  0  0
 13  7  1  0  0  0  0
 13 14  1  1  0  0  0
 14 15  1  0  0  0  0
 16 14  1  0  0  0  0
 17 20  1  0  0  0  0
 18 25  1  0  0  0  0
 19 18  1  0  0  0  0
 20 19  2  0  0  0  0
 21 22  2  0  0  0  0
 21 20  1  0  0  0  0
 22 23  1  0  0  0  0
 23 26  1  0  0  0  0
 23 18  2  0  0  0  0
 25 24  1  0  0  0  0
 27 26  1  0  0  0  0
M  END
>  <MODEL>
8

>  <REMARK>
 VINA RESULT:    -7.158      3.788      8.335
 INTER + INTRA:         -10.204
 INTER:                  -9.428
 INTRA:                  -0.776
 UNBOUND:                -0.744
  Name = CHEMBL1098226
  10 active torsions:
  status: ('A' for Active; 'I' for Inactive)
    1  A    between atoms: C_1  and  O_2
    2  A    between atoms: O_2  and  C_3
    3  A    between atoms: C_5  and  C_6
    4  A    between atoms: C_6  and  N_7
    5  A    between atoms: N_10  and  C_11
    6  A    between atoms: C_13  and  C_14
    7  A    between atoms: C_17  and  C_18
    8  A    between atoms: C_18  and  C_19
    9  A    between atoms: C_18  and  C_20
   10  A    between atoms: C_23  and  O_24
                            x       y       z     vdW  Elec       q    Type
                         _______ _______ _______ _____ _____    ______ ____

>  <TORSDO>
F 6

>  <SCORE>
-7.158

>  <RMSD_LB>
3.788

>  <RMSD_UB>
8.335

$$$$
CHEMBL1098226
 OpenBabel10162523353D

 27 28  0  0  1  0  0  0  0  0999 V2000
  144.9130  137.0560  151.2310 N   0  0  0  0  0  0  0  0  0  0  0  0
  143.8140  137.8730  151.1570 C   0  0  0  0  0  0  0  0  0  0  0  0
  143.8700  139.0790  150.9700 O   0  0  0  0  0  0  0  0  0  0  0  0
  142.6540  137.1720  151.3490 N   0  0  0  0  0  0  0  0  0  0  0  0
  144.7860  136.0830  151.3120 H   0  0  0  0  0  0  0  0  0  0  0  0
  142.7200  136.1930  151.4330 H   0  0  0  0  0  0  0  0  0  0  0  0
  141.3200  137.7740  151.4430 C   0  0  2  0  0  3  0  0  0  0  0  0
  140.9560  137.9950  152.9270 C   0  0  0  0  0  2  0  0  0  0  0  0
  139.5690  138.6050  153.1270 C   0  0  2  0  0  3  0  0  0  0  0  0
  139.2390  138.7220  154.6150 C   0  0  0  0  0  1  0  0  0  0  0  0
  138.5230  137.7480  152.4220 C   0  0  0  0  0  2  0  0  0  0  0  0
  138.8320  137.6110  150.9380 C   0  0  0  0  0  2  0  0  0  0  0  0
  140.2260  137.0050  150.6340 C   0  0  1  0  0  3  0  0  0  0  0  0
  140.4380  137.0070  149.0730 C   0  0  0  0  0  3  0  0  0  0  0  0
  139.1530  137.4110  148.3260 C   0  0  0  0  0  1  0  0  0  0  0  0
  140.9140  135.6820  148.4700 C   0  0  0  0  0  1  0  0  0  0  0  0
  146.2590  137.6000  151.1930 C   0  0  0  0  0  2  0  0  0  0  0  0
  148.1710  139.3280  154.0190 C   0  0  0  0  0  0  0  0  0  0  0  0
  147.6570  139.0050  152.7610 C   0  0  0  0  0  3  0  0  0  0  0  0
  146.7930  137.9120  152.5730 C   0  0  0  0  0  0  0  0  0  0  0  0
  146.4730  137.1130  153.6780 C   0  0  0  0  0  3  0  0  0  0  0  0
  146.9950  137.4120  154.9410 C   0  0  0  0  0  3  0  0  0  0  0  0
  147.8320  138.5170  155.1050 C   0  0  0  0  0  0  0  0  0  0  0  0
  148.4100  141.6880  154.2130 C   0  0  0  0  0  1  0  0  0  0  0  0
  148.9970  140.3930  154.2700 O   0  0  0  0  0  0  0  0  0  0  0  0
  148.3340  138.8140  156.3440 O   0  0  0  0  0  0  0  0  0  0  0  0
  148.7300  139.6490  156.5010 H   0  0  0  0  0  0  0  0  0  0  0  0
  1  5  1  0  0  0  0
  2  1  1  0  0  0  0
  2  4  1  0  0  0  0
  3  2  2  0  0  0  0
  4  6  1  0  0  0  0
  7  4  1  1  0  0  0
  7  8  1  0  0  0  0
  8  9  1  0  0  0  0
  9 10  1  1  0  0  0
 11  9  1  0  0  0  0
 12 11  1  0  0  0  0
 13 14  1  6  0  0  0
 13 12  1  0  0  0  0
 13  7  1  0  0  0  0
 15 14  1  0  0  0  0
 16 14  1  0  0  0  0
 17  1  1  0  0  0  0
 17 20  1  0  0  0  0
 18 25  1  0  0  0  0
 18 23  1  0  0  0  0
 19 18  2  0  0  0  0
 20 19  1  0  0  0  0
 20 21  2  0  0  0  0
 21 22  1  0  0  0  0
 22 23  2  0  0  0  0
 23 26  1  0  0  0  0
 24 25  1  0  0  0  0
 26 27  1  0  0  0  0
M  END
>  <MODEL>
9

>  <REMARK>
 VINA RESULT:    -6.797      3.130      8.131
 INTER + INTRA:          -9.727
 INTER:                  -8.983
 INTRA:                  -0.744
 UNBOUND:                -0.744
  Name = CHEMBL1098226
  10 active torsions:
  status: ('A' for Active; 'I' for Inactive)
    1  A    between atoms: C_1  and  O_2
    2  A    between atoms: O_2  and  C_3
    3  A    between atoms: C_5  and  C_6
    4  A    between atoms: C_6  and  N_7
    5  A    between atoms: N_10  and  C_11
    6  A    between atoms: C_13  and  C_14
    7  A    between atoms: C_17  and  C_18
    8  A    between atoms: C_18  and  C_19
    9  A    between atoms: C_18  and  C_20
   10  A    between atoms: C_23  and  O_24
                            x       y       z     vdW  Elec       q    Type
                         _______ _______ _______ _____ _____    ______ ____

>  <TORSDO>
F 6

>  <SCORE>
-6.797

>  <RMSD_LB>
3.130

>  <RMSD_UB>
8.131

$$$$
