CHEMBL79767
 OpenBabel10172500423D

 26 27  0  0  0  0  0  0  0  0999 V2000
  143.0380  139.5130  152.2250 N   0  0  0  0  0  0  0  0  0  0  0  0
  142.2950  138.5450  151.5840 C   0  0  0  0  0  0  0  0  0  0  0  0
  142.3470  138.3450  150.3750 O   0  0  0  0  0  0  0  0  0  0  0  0
  142.9070  139.6450  153.1920 H   0  0  0  0  0  0  0  0  0  0  0  0
  144.0010  140.3410  151.5340 C   0  0  0  0  0  2  0  0  0  0  0  0
  146.7270  140.1000  154.2000 C   0  0  0  0  0  0  0  0  0  0  0  0
  145.6470  139.7820  153.3690 C   0  0  0  0  0  3  0  0  0  0  0  0
  145.1860  140.6900  152.3970 C   0  0  0  0  0  0  0  0  0  0  0  0
  145.8400  141.9230  152.2550 C   0  0  0  0  0  3  0  0  0  0  0  0
  146.9180  142.2510  153.0760 C   0  0  0  0  0  3  0  0  0  0  0  0
  147.3530  141.3470  154.0430 C   0  0  0  0  0  0  0  0  0  0  0  0
  147.9850  138.1560  154.7670 C   0  0  0  0  0  1  0  0  0  0  0  0
  147.2340  139.2890  155.1800 O   0  0  0  0  0  0  0  0  0  0  0  0
  148.4070  141.6710  154.8550 O   0  0  0  0  0  0  0  0  0  0  0  0
  149.1840  142.0440  154.4880 H   0  0  0  0  0  0  0  0  0  0  0  0
  141.3870  137.7640  152.5210 C   0  0  0  0  0  2  0  0  0  0  0  0
  141.5430  138.2320  153.9670 C   0  0  0  0  0  2  0  0  0  0  0  0
  140.2550  138.1630  154.7570 C   0  0  0  0  0  0  0  0  0  0  0  0
  140.2570  137.7420  156.0930 C   0  0  0  0  0  3  0  0  0  0  0  0
  139.0710  137.7190  156.8380 C   0  0  0  0  0  3  0  0  0  0  0  0
  137.8550  138.1230  156.2690 C   0  0  0  0  0  0  0  0  0  0  0  0
  137.8530  138.5100  154.9250 C   0  0  0  0  0  3  0  0  0  0  0  0
  139.0360  138.5300  154.1750 C   0  0  0  0  0  3  0  0  0  0  0  0
  136.6250  138.1090  156.9540 N   0  0  0  0  0  0  0  0  0  0  0  0
  136.6800  138.4650  158.1480 N   0  0  0  0  0  4  0  0  0  0  0  0
  136.7150  138.7780  159.2420 N   0  0  0  0  0  2  0  0  0  0  0  0
  1  4  1  0  0  0  0
  2  1  1  0  0  0  0
  2 16  1  0  0  0  0
  3  2  2  0  0  0  0
  5  1  1  0  0  0  0
  5  8  1  0  0  0  0
  6 13  1  0  0  0  0
  7  6  2  0  0  0  0
  8  7  1  0  0  0  0
  9  8  2  0  0  0  0
  9 10  1  0  0  0  0
 10 11  2  0  0  0  0
 11  6  1  0  0  0  0
 11 14  1  0  0  0  0
 12 13  1  0  0  0  0
 15 14  1  0  0  0  0
 16 17  1  0  0  0  0
 17 18  1  0  0  0  0
 18 19  1  0  0  0  0
 19 20  2  0  0  0  0
 21 20  1  0  0  0  0
 21 24  1  0  0  0  0
 22 21  2  0  0  0  0
 23 18  2  0  0  0  0
 23 22  1  0  0  0  0
 24 25  2  0  0  0  0
 25 26  2  0  0  0  0
M  END
>  <MODEL>
1

>  <REMARK>
 VINA RESULT:    -7.810      0.000      0.000
 INTER + INTRA:         -11.995
 INTER:                 -11.273
 INTRA:                  -0.722
 UNBOUND:                -0.761
  Name = CHEMBL79767
  9 active torsions:
  status: ('A' for Active; 'I' for Inactive)
    1  A    between atoms: C_1  and  O_2
    2  A    between atoms: O_2  and  C_3
    3  A    between atoms: C_5  and  C_6
    4  A    between atoms: C_6  and  N_7
    5  A    between atoms: C_8  and  C_10
    6  A    between atoms: C_10  and  C_11
    7  A    between atoms: C_11  and  C_12
    8  A    between atoms: C_15  and  N_16
    9  A    between atoms: C_23  and  O_24
                            x       y       z     vdW  Elec       q    Type
                         _______ _______ _______ _____ _____    ______ ____

>  <TORSDO>
F 8

>  <SCORE>
-7.810

>  <RMSD_LB>
0.000

>  <RMSD_UB>
0.000

$$$$
CHEMBL79767
 OpenBabel10172500423D

 26 27  0  0  0  0  0  0  0  0999 V2000
  138.7610  137.8190  155.2250 N   0  0  0  0  0  0  0  0  0  0  0  0
  137.4820  138.1970  155.5740 C   0  0  0  0  0  0  0  0  0  0  0  0
  137.0180  139.3080  155.3390 O   0  0  0  0  0  0  0  0  0  0  0  0
  139.0780  136.9260  155.4880 H   0  0  0  0  0  0  0  0  0  0  0  0
  139.6540  138.6840  154.4850 C   0  0  0  0  0  2  0  0  0  0  0  0
  141.7130  137.3080  151.5750 C   0  0  0  0  0  0  0  0  0  0  0  0
  141.3530  137.8050  152.8330 C   0  0  0  0  0  3  0  0  0  0  0  0
  140.0150  138.1190  153.1350 C   0  0  0  0  0  0  0  0  0  0  0  0
  139.0310  137.9090  152.1580 C   0  0  0  0  0  3  0  0  0  0  0  0
  139.3750  137.4130  150.9010 C   0  0  0  0  0  3  0  0  0  0  0  0
  140.7070  137.1200  150.6130 C   0  0  0  0  0  0  0  0  0  0  0  0
  143.9380  138.0430  151.1420 C   0  0  0  0  0  1  0  0  0  0  0  0
  142.9870  136.9900  151.1870 O   0  0  0  0  0  0  0  0  0  0  0  0
  141.0480  136.6410  149.3770 O   0  0  0  0  0  0  0  0  0  0  0  0
  140.8720  137.1510  148.6110 H   0  0  0  0  0  0  0  0  0  0  0  0
  136.7100  137.1080  156.3010 C   0  0  0  0  0  2  0  0  0  0  0  0
  136.7910  135.7750  155.5570 C   0  0  0  0  0  2  0  0  0  0  0  0
  135.7670  135.6480  154.4510 C   0  0  0  0  0  0  0  0  0  0  0  0
  136.1210  135.8910  153.1180 C   0  0  0  0  0  3  0  0  0  0  0  0
  135.1850  135.7310  152.0890 C   0  0  0  0  0  3  0  0  0  0  0  0
  133.8740  135.3190  152.3650 C   0  0  0  0  0  0  0  0  0  0  0  0
  133.5160  135.1110  153.7010 C   0  0  0  0  0  3  0  0  0  0  0  0
  134.4480  135.2730  154.7340 C   0  0  0  0  0  3  0  0  0  0  0  0
  132.8780  135.1550  151.3830 N   0  0  0  0  0  0  0  0  0  0  0  0
  132.7790  136.0940  150.5690 N   0  0  0  0  0  4  0  0  0  0  0  0
  132.6680  136.9490  149.8240 N   0  0  0  0  0  2  0  0  0  0  0  0
  1  4  1  0  0  0  0
  1  2  1  0  0  0  0
  2 16  1  0  0  0  0
  3  2  2  0  0  0  0
  5  1  1  0  0  0  0
  6  7  1  0  0  0  0
  7  8  2  0  0  0  0
  8  5  1  0  0  0  0
  9  8  1  0  0  0  0
 10  9  2  0  0  0  0
 11 10  1  0  0  0  0
 11  6  2  0  0  0  0
 12 13  1  0  0  0  0
 13  6  1  0  0  0  0
 14 11  1  0  0  0  0
 15 14  1  0  0  0  0
 17 16  1  0  0  0  0
 18 23  1  0  0  0  0
 18 17  1  0  0  0  0
 19 18  2  0  0  0  0
 20 21  2  0  0  0  0
 20 19  1  0  0  0  0
 21 22  1  0  0  0  0
 22 23  2  0  0  0  0
 24 21  1  0  0  0  0
 25 24  2  0  0  0  0
 26 25  2  0  0  0  0
M  END
>  <MODEL>
2

>  <REMARK>
 VINA RESULT:    -7.574      4.182      6.947
 INTER + INTRA:         -11.655
 INTER:                 -10.495
 INTRA:                  -1.160
 UNBOUND:                -0.761
  Name = CHEMBL79767
  9 active torsions:
  status: ('A' for Active; 'I' for Inactive)
    1  A    between atoms: C_1  and  O_2
    2  A    between atoms: O_2  and  C_3
    3  A    between atoms: C_5  and  C_6
    4  A    between atoms: C_6  and  N_7
    5  A    between atoms: C_8  and  C_10
    6  A    between atoms: C_10  and  C_11
    7  A    between atoms: C_11  and  C_12
    8  A    between atoms: C_15  and  N_16
    9  A    between atoms: C_23  and  O_24
                            x       y       z     vdW  Elec       q    Type
                         _______ _______ _______ _____ _____    ______ ____

>  <TORSDO>
F 8

>  <SCORE>
-7.574

>  <RMSD_LB>
4.182

>  <RMSD_UB>
6.947

$$$$
CHEMBL79767
 OpenBabel10172500423D

 26 27  0  0  0  0  0  0  0  0999 V2000
  138.5060  137.5780  154.9840 N   0  0  0  0  0  0  0  0  0  0  0  0
  137.3320  138.0100  155.5640 C   0  0  0  0  0  0  0  0  0  0  0  0
  136.9900  139.1870  155.6000 O   0  0  0  0  0  0  0  0  0  0  0  0
  138.7340  136.6220  155.0360 H   0  0  0  0  0  0  0  0  0  0  0  0
  139.4140  138.4740  154.3030 C   0  0  0  0  0  2  0  0  0  0  0  0
  139.0250  137.3800  150.6620 C   0  0  0  0  0  0  0  0  0  0  0  0
  138.7350  137.8440  151.9510 C   0  0  0  0  0  3  0  0  0  0  0  0
  139.7520  138.0040  152.9110 C   0  0  0  0  0  0  0  0  0  0  0  0
  141.0750  137.7090  152.5540 C   0  0  0  0  0  3  0  0  0  0  0  0
  141.3780  137.2480  151.2730 C   0  0  0  0  0  3  0  0  0  0  0  0
  140.3580  137.0810  150.3380 C   0  0  0  0  0  0  0  0  0  0  0  0
  137.3380  138.3020  149.2530 C   0  0  0  0  0  1  0  0  0  0  0  0
  138.1030  137.1800  149.6700 O   0  0  0  0  0  0  0  0  0  0  0  0
  140.6520  136.6210  149.0840 O   0  0  0  0  0  0  0  0  0  0  0  0
  141.0820  137.1810  148.4670 H   0  0  0  0  0  0  0  0  0  0  0  0
  136.5130  136.8840  156.1760 C   0  0  0  0  0  2  0  0  0  0  0  0
  136.6670  135.5870  155.3820 C   0  0  0  0  0  2  0  0  0  0  0  0
  135.7020  135.4800  154.2220 C   0  0  0  0  0  0  0  0  0  0  0  0
  136.0730  135.9090  152.9420 C   0  0  0  0  0  3  0  0  0  0  0  0
  135.1960  135.7710  151.8590 C   0  0  0  0  0  3  0  0  0  0  0  0
  133.9300  135.1940  152.0270 C   0  0  0  0  0  0  0  0  0  0  0  0
  133.5520  134.7980  153.3140 C   0  0  0  0  0  3  0  0  0  0  0  0
  134.4240  134.9380  154.4010 C   0  0  0  0  0  3  0  0  0  0  0  0
  132.9930  135.0390  150.9870 N   0  0  0  0  0  0  0  0  0  0  0  0
  132.7930  136.0600  150.3000 N   0  0  0  0  0  4  0  0  0  0  0  0
  132.5900  136.9870  149.6700 N   0  0  0  0  0  2  0  0  0  0  0  0
  1  4  1  0  0  0  0
  1  2  1  0  0  0  0
  2  3  2  0  0  0  0
  2 16  1  0  0  0  0
  5  1  1  0  0  0  0
  6  7  1  0  0  0  0
  7  8  2  0  0  0  0
  8  5  1  0  0  0  0
  9  8  1  0  0  0  0
 10  9  2  0  0  0  0
 11  6  2  0  0  0  0
 11 10  1  0  0  0  0
 12 13  1  0  0  0  0
 13  6  1  0  0  0  0
 14 11  1  0  0  0  0
 15 14  1  0  0  0  0
 17 16  1  0  0  0  0
 18 23  1  0  0  0  0
 18 17  1  0  0  0  0
 19 18  2  0  0  0  0
 20 21  2  0  0  0  0
 20 19  1  0  0  0  0
 21 22  1  0  0  0  0
 22 23  2  0  0  0  0
 24 21  1  0  0  0  0
 25 24  2  0  0  0  0
 26 25  2  0  0  0  0
M  END
>  <MODEL>
3

>  <REMARK>
 VINA RESULT:    -7.516      5.081      7.718
 INTER + INTRA:         -11.573
 INTER:                 -10.402
 INTRA:                  -1.171
 UNBOUND:                -0.761
  Name = CHEMBL79767
  9 active torsions:
  status: ('A' for Active; 'I' for Inactive)
    1  A    between atoms: C_1  and  O_2
    2  A    between atoms: O_2  and  C_3
    3  A    between atoms: C_5  and  C_6
    4  A    between atoms: C_6  and  N_7
    5  A    between atoms: C_8  and  C_10
    6  A    between atoms: C_10  and  C_11
    7  A    between atoms: C_11  and  C_12
    8  A    between atoms: C_15  and  N_16
    9  A    between atoms: C_23  and  O_24
                            x       y       z     vdW  Elec       q    Type
                         _______ _______ _______ _____ _____    ______ ____

>  <TORSDO>
F 8

>  <SCORE>
-7.516

>  <RMSD_LB>
5.081

>  <RMSD_UB>
7.718

$$$$
CHEMBL79767
 OpenBabel10172500423D

 26 27  0  0  0  0  0  0  0  0999 V2000
  135.0210  134.7630  155.2230 N   0  0  0  0  0  0  0  0  0  0  0  0
  133.9570  135.2540  154.4970 C   0  0  0  0  0  0  0  0  0  0  0  0
  132.8720  135.5330  154.9940 O   0  0  0  0  0  0  0  0  0  0  0  0
  135.8450  134.5180  154.7450 H   0  0  0  0  0  0  0  0  0  0  0  0
  134.9730  134.5960  156.6580 C   0  0  0  0  0  2  0  0  0  0  0  0
  137.3720  137.4880  157.3500 C   0  0  0  0  0  0  0  0  0  0  0  0
  136.6210  136.5120  156.6850 C   0  0  0  0  0  3  0  0  0  0  0  0
  135.7480  135.6620  157.3890 C   0  0  0  0  0  0  0  0  0  0  0  0
  135.6210  135.8180  158.7770 C   0  0  0  0  0  3  0  0  0  0  0  0
  136.3620  136.7870  159.4520 C   0  0  0  0  0  3  0  0  0  0  0  0
  137.2330  137.6120  158.7420 C   0  0  0  0  0  0  0  0  0  0  0  0
  139.3640  137.7760  156.0750 C   0  0  0  0  0  1  0  0  0  0  0  0
  138.2550  138.3470  156.7530 O   0  0  0  0  0  0  0  0  0  0  0  0
  137.9670  138.5580  159.4040 O   0  0  0  0  0  0  0  0  0  0  0  0
  138.0420  139.4240  159.0530 H   0  0  0  0  0  0  0  0  0  0  0  0
  134.2540  135.3930  153.0120 C   0  0  0  0  0  2  0  0  0  0  0  0
  135.1170  134.2370  152.5050 C   0  0  0  0  0  2  0  0  0  0  0  0
  135.0040  134.0190  151.0130 C   0  0  0  0  0  0  0  0  0  0  0  0
  135.8350  134.7130  150.1250 C   0  0  0  0  0  3  0  0  0  0  0  0
  135.7610  134.4800  148.7460 C   0  0  0  0  0  3  0  0  0  0  0  0
  134.8600  133.5430  148.2210 C   0  0  0  0  0  0  0  0  0  0  0  0
  134.0090  132.8770  149.1100 C   0  0  0  0  0  3  0  0  0  0  0  0
  134.0770  133.1100  150.4890 C   0  0  0  0  0  3  0  0  0  0  0  0
  134.7210  133.2710  146.8460 N   0  0  0  0  0  0  0  0  0  0  0  0
  135.3140  132.2500  146.4460 N   0  0  0  0  0  4  0  0  0  0  0  0
  135.8590  131.3260  146.0630 N   0  0  0  0  0  2  0  0  0  0  0  0
  1  5  1  0  0  0  0
  2  3  2  0  0  0  0
  2  1  1  0  0  0  0
  4  1  1  0  0  0  0
  5  8  1  0  0  0  0
  6 11  1  0  0  0  0
  7  6  2  0  0  0  0
  7  8  1  0  0  0  0
  8  9  2  0  0  0  0
  9 10  1  0  0  0  0
 11 14  1  0  0  0  0
 11 10  2  0  0  0  0
 12 13  1  0  0  0  0
 13  6  1  0  0  0  0
 15 14  1  0  0  0  0
 16  2  1  0  0  0  0
 17 16  1  0  0  0  0
 18 17  1  0  0  0  0
 19 18  2  0  0  0  0
 20 19  1  0  0  0  0
 21 20  2  0  0  0  0
 21 22  1  0  0  0  0
 22 23  2  0  0  0  0
 23 18  1  0  0  0  0
 24 21  1  0  0  0  0
 25 24  2  0  0  0  0
 26 25  2  0  0  0  0
M  END
>  <MODEL>
4

>  <REMARK>
 VINA RESULT:    -7.466      7.214     10.608
 INTER + INTRA:         -11.501
 INTER:                 -10.821
 INTRA:                  -0.679
 UNBOUND:                -0.761
  Name = CHEMBL79767
  9 active torsions:
  status: ('A' for Active; 'I' for Inactive)
    1  A    between atoms: C_1  and  O_2
    2  A    between atoms: O_2  and  C_3
    3  A    between atoms: C_5  and  C_6
    4  A    between atoms: C_6  and  N_7
    5  A    between atoms: C_8  and  C_10
    6  A    between atoms: C_10  and  C_11
    7  A    between atoms: C_11  and  C_12
    8  A    between atoms: C_15  and  N_16
    9  A    between atoms: C_23  and  O_24
                            x       y       z     vdW  Elec       q    Type
                         _______ _______ _______ _____ _____    ______ ____

>  <TORSDO>
F 8

>  <SCORE>
-7.466

>  <RMSD_LB>
7.214

>  <RMSD_UB>
10.608

$$$$
CHEMBL79767
 OpenBabel10172500423D

 26 27  0  0  0  0  0  0  0  0999 V2000
  144.1920  139.6760  150.9160 N   0  0  0  0  0  0  0  0  0  0  0  0
  143.0230  139.4550  150.2200 C   0  0  0  0  0  0  0  0  0  0  0  0
  142.3310  140.3560  149.7590 O   0  0  0  0  0  0  0  0  0  0  0  0
  144.6680  138.9030  151.2960 H   0  0  0  0  0  0  0  0  0  0  0  0
  144.7460  140.9980  151.1090 C   0  0  0  0  0  2  0  0  0  0  0  0
  146.8240  140.1350  154.1980 C   0  0  0  0  0  0  0  0  0  0  0  0
  145.8260  140.1130  153.2170 C   0  0  0  0  0  3  0  0  0  0  0  0
  145.8480  141.0160  152.1380 C   0  0  0  0  0  0  0  0  0  0  0  0
  146.9030  141.9350  152.0420 C   0  0  0  0  0  3  0  0  0  0  0  0
  147.9050  141.9660  153.0120 C   0  0  0  0  0  3  0  0  0  0  0  0
  147.8600  141.0760  154.0830 C   0  0  0  0  0  0  0  0  0  0  0  0
  147.4010  138.0030  155.0940 C   0  0  0  0  0  1  0  0  0  0  0  0
  146.8760  139.3090  155.2880 O   0  0  0  0  0  0  0  0  0  0  0  0
  148.8380  141.1100  155.0400 O   0  0  0  0  0  0  0  0  0  0  0  0
  148.6130  141.2650  155.9360 H   0  0  0  0  0  0  0  0  0  0  0  0
  142.6620  137.9830  150.1000 C   0  0  0  0  0  2  0  0  0  0  0  0
  142.5960  137.3110  151.4720 C   0  0  0  0  0  2  0  0  0  0  0  0
  141.4330  137.7890  152.3130 C   0  0  0  0  0  0  0  0  0  0  0  0
  140.1200  137.7010  151.8330 C   0  0  0  0  0  3  0  0  0  0  0  0
  139.0390  138.1020  152.6270 C   0  0  0  0  0  3  0  0  0  0  0  0
  139.2420  138.5950  153.9240 C   0  0  0  0  0  0  0  0  0  0  0  0
  140.5570  138.7130  154.3850 C   0  0  0  0  0  3  0  0  0  0  0  0
  141.6410  138.3160  153.5920 C   0  0  0  0  0  3  0  0  0  0  0  0
  138.2040  139.0320  154.7690 N   0  0  0  0  0  0  0  0  0  0  0  0
  138.2450  138.5830  155.9320 N   0  0  0  0  0  4  0  0  0  0  0  0
  138.2620  138.1730  156.9940 N   0  0  0  0  0  2  0  0  0  0  0  0
  1  5  1  0  0  0  0
  1  4  1  0  0  0  0
  2  1  1  0  0  0  0
  3  2  2  0  0  0  0
  5  8  1  0  0  0  0
  6 13  1  0  0  0  0
  7  6  2  0  0  0  0
  8  7  1  0  0  0  0
  9  8  2  0  0  0  0
  9 10  1  0  0  0  0
 10 11  2  0  0  0  0
 11  6  1  0  0  0  0
 11 14  1  0  0  0  0
 12 13  1  0  0  0  0
 14 15  1  0  0  0  0
 16  2  1  0  0  0  0
 16 17  1  0  0  0  0
 17 18  1  0  0  0  0
 18 23  1  0  0  0  0
 19 18  2  0  0  0  0
 19 20  1  0  0  0  0
 20 21  2  0  0  0  0
 21 22  1  0  0  0  0
 21 24  1  0  0  0  0
 23 22  2  0  0  0  0
 24 25  2  0  0  0  0
 25 26  2  0  0  0  0
M  END
>  <MODEL>
5

>  <REMARK>
 VINA RESULT:    -7.451      1.492      2.249
 INTER + INTRA:         -11.479
 INTER:                 -10.597
 INTRA:                  -0.882
 UNBOUND:                -0.761
  Name = CHEMBL79767
  9 active torsions:
  status: ('A' for Active; 'I' for Inactive)
    1  A    between atoms: C_1  and  O_2
    2  A    between atoms: O_2  and  C_3
    3  A    between atoms: C_5  and  C_6
    4  A    between atoms: C_6  and  N_7
    5  A    between atoms: C_8  and  C_10
    6  A    between atoms: C_10  and  C_11
    7  A    between atoms: C_11  and  C_12
    8  A    between atoms: C_15  and  N_16
    9  A    between atoms: C_23  and  O_24
                            x       y       z     vdW  Elec       q    Type
                         _______ _______ _______ _____ _____    ______ ____

>  <TORSDO>
F 8

>  <SCORE>
-7.451

>  <RMSD_LB>
1.492

>  <RMSD_UB>
2.249

$$$$
CHEMBL79767
 OpenBabel10172500423D

 26 27  0  0  0  0  0  0  0  0999 V2000
  145.8460  139.1690  149.7340 N   0  0  0  0  0  0  0  0  0  0  0  0
  145.2360  140.2190  149.0800 C   0  0  0  0  0  0  0  0  0  0  0  0
  144.0200  140.3430  148.9880 O   0  0  0  0  0  0  0  0  0  0  0  0
  146.8280  139.1140  149.7250 H   0  0  0  0  0  0  0  0  0  0  0  0
  145.0980  138.1470  150.4310 C   0  0  0  0  0  2  0  0  0  0  0  0
  143.3260  139.0590  153.6910 C   0  0  0  0  0  0  0  0  0  0  0  0
  143.5590  138.7100  152.3560 C   0  0  0  0  0  3  0  0  0  0  0  0
  144.8650  138.4910  151.8810 C   0  0  0  0  0  0  0  0  0  0  0  0
  145.9420  138.6070  152.7720 C   0  0  0  0  0  3  0  0  0  0  0  0
  145.7230  138.9530  154.1050 C   0  0  0  0  0  3  0  0  0  0  0  0
  144.4240  139.1820  154.5570 C   0  0  0  0  0  0  0  0  0  0  0  0
  141.2150  138.2020  154.3920 C   0  0  0  0  0  1  0  0  0  0  0  0
  142.0950  139.3060  154.2390 O   0  0  0  0  0  0  0  0  0  0  0  0
  144.2090  139.5290  155.8630 O   0  0  0  0  0  0  0  0  0  0  0  0
  143.5190  140.1250  156.0830 H   0  0  0  0  0  0  0  0  0  0  0  0
  146.2220  141.1990  148.4630 C   0  0  0  0  0  2  0  0  0  0  0  0
  146.3230  142.4820  149.2870 C   0  0  0  0  0  2  0  0  0  0  0  0
  146.9120  142.2620  150.6630 C   0  0  0  0  0  0  0  0  0  0  0  0
  148.2760  141.9840  150.8190 C   0  0  0  0  0  3  0  0  0  0  0  0
  148.8310  141.8220  152.0950 C   0  0  0  0  0  3  0  0  0  0  0  0
  148.0390  141.9430  153.2460 C   0  0  0  0  0  0  0  0  0  0  0  0
  146.6720  142.1870  153.0820 C   0  0  0  0  0  3  0  0  0  0  0  0
  146.1120  142.3450  151.8080 C   0  0  0  0  0  3  0  0  0  0  0  0
  148.5270  141.7760  154.5560 N   0  0  0  0  0  0  0  0  0  0  0  0
  148.6960  140.5930  154.9110 N   0  0  0  0  0  4  0  0  0  0  0  0
  148.8450  139.5170  155.2540 N   0  0  0  0  0  2  0  0  0  0  0  0
  1  5  1  0  0  0  0
  2  1  1  0  0  0  0
  3  2  2  0  0  0  0
  4  1  1  0  0  0  0
  5  8  1  0  0  0  0
  6 13  1  0  0  0  0
  6 11  1  0  0  0  0
  7  6  2  0  0  0  0
  8  7  1  0  0  0  0
  8  9  2  0  0  0  0
  9 10  1  0  0  0  0
 10 11  2  0  0  0  0
 11 14  1  0  0  0  0
 13 12  1  0  0  0  0
 14 15  1  0  0  0  0
 16  2  1  0  0  0  0
 16 17  1  0  0  0  0
 17 18  1  0  0  0  0
 18 19  2  0  0  0  0
 18 23  1  0  0  0  0
 19 20  1  0  0  0  0
 20 21  2  0  0  0  0
 21 24  1  0  0  0  0
 22 21  1  0  0  0  0
 23 22  2  0  0  0  0
 24 25  2  0  0  0  0
 25 26  2  0  0  0  0
M  END
>  <MODEL>
6

>  <REMARK>
 VINA RESULT:    -7.440      4.940      7.693
 INTER + INTRA:         -11.462
 INTER:                  -9.828
 INTRA:                  -1.635
 UNBOUND:                -0.761
  Name = CHEMBL79767
  9 active torsions:
  status: ('A' for Active; 'I' for Inactive)
    1  A    between atoms: C_1  and  O_2
    2  A    between atoms: O_2  and  C_3
    3  A    between atoms: C_5  and  C_6
    4  A    between atoms: C_6  and  N_7
    5  A    between atoms: C_8  and  C_10
    6  A    between atoms: C_10  and  C_11
    7  A    between atoms: C_11  and  C_12
    8  A    between atoms: C_15  and  N_16
    9  A    between atoms: C_23  and  O_24
                            x       y       z     vdW  Elec       q    Type
                         _______ _______ _______ _____ _____    ______ ____

>  <TORSDO>
F 8

>  <SCORE>
-7.440

>  <RMSD_LB>
4.940

>  <RMSD_UB>
7.693

$$$$
CHEMBL79767
 OpenBabel10172500423D

 26 27  0  0  0  0  0  0  0  0999 V2000
  135.5330  135.8730  153.9020 N   0  0  0  0  0  0  0  0  0  0  0  0
  134.2450  135.4830  153.6010 C   0  0  0  0  0  0  0  0  0  0  0  0
  133.4300  135.1350  154.4480 O   0  0  0  0  0  0  0  0  0  0  0  0
  136.1440  136.0930  153.1630 H   0  0  0  0  0  0  0  0  0  0  0  0
  136.0200  135.9710  155.2600 C   0  0  0  0  0  2  0  0  0  0  0  0
  138.9580  138.2320  154.3350 C   0  0  0  0  0  0  0  0  0  0  0  0
  137.7450  137.5350  154.2780 C   0  0  0  0  0  3  0  0  0  0  0  0
  137.3130  136.7390  155.3550 C   0  0  0  0  0  0  0  0  0  0  0  0
  138.1090  136.6650  156.5070 C   0  0  0  0  0  3  0  0  0  0  0  0
  139.3190  137.3560  156.5770 C   0  0  0  0  0  3  0  0  0  0  0  0
  139.7400  138.1280  155.4970 C   0  0  0  0  0  0  0  0  0  0  0  0
  139.9440  138.3590  152.1690 C   0  0  0  0  0  1  0  0  0  0  0  0
  139.4650  139.0160  153.3340 O   0  0  0  0  0  0  0  0  0  0  0  0
  140.9300  138.8000  155.5610 O   0  0  0  0  0  0  0  0  0  0  0  0
  141.3380  139.1100  154.7760 H   0  0  0  0  0  0  0  0  0  0  0  0
  133.9430  135.5030  152.1110 C   0  0  0  0  0  2  0  0  0  0  0  0
  133.2280  134.2260  151.6690 C   0  0  0  0  0  2  0  0  0  0  0  0
  133.4060  133.9230  150.1980 C   0  0  0  0  0  0  0  0  0  0  0  0
  133.0380  134.8600  149.2250 C   0  0  0  0  0  3  0  0  0  0  0  0
  133.2430  134.5980  147.8650 C   0  0  0  0  0  3  0  0  0  0  0  0
  133.8280  133.3960  147.4430 C   0  0  0  0  0  0  0  0  0  0  0  0
  134.1630  132.4490  148.4180 C   0  0  0  0  0  3  0  0  0  0  0  0
  133.9550  132.7060  149.7790 C   0  0  0  0  0  3  0  0  0  0  0  0
  134.0480  133.0590  146.0940 N   0  0  0  0  0  0  0  0  0  0  0  0
  135.0290  132.3190  145.8860 N   0  0  0  0  0  4  0  0  0  0  0  0
  135.9290  131.6520  145.6790 N   0  0  0  0  0  2  0  0  0  0  0  0
  1  5  1  0  0  0  0
  2  1  1  0  0  0  0
  2  3  2  0  0  0  0
  4  1  1  0  0  0  0
  5  8  1  0  0  0  0
  6 11  1  0  0  0  0
  7  6  2  0  0  0  0
  7  8  1  0  0  0  0
  8  9  2  0  0  0  0
  9 10  1  0  0  0  0
 11 14  1  0  0  0  0
 11 10  2  0  0  0  0
 12 13  1  0  0  0  0
 13  6  1  0  0  0  0
 15 14  1  0  0  0  0
 16  2  1  0  0  0  0
 17 16  1  0  0  0  0
 18 17  1  0  0  0  0
 19 18  2  0  0  0  0
 20 19  1  0  0  0  0
 21 20  2  0  0  0  0
 21 22  1  0  0  0  0
 22 23  2  0  0  0  0
 23 18  1  0  0  0  0
 24 21  1  0  0  0  0
 25 24  2  0  0  0  0
 26 25  2  0  0  0  0
M  END
>  <MODEL>
7

>  <REMARK>
 VINA RESULT:    -7.387      7.190      9.948
 INTER + INTRA:         -11.387
 INTER:                 -10.946
 INTRA:                  -0.441
 UNBOUND:                -0.761
  Name = CHEMBL79767
  9 active torsions:
  status: ('A' for Active; 'I' for Inactive)
    1  A    between atoms: C_1  and  O_2
    2  A    between atoms: O_2  and  C_3
    3  A    between atoms: C_5  and  C_6
    4  A    between atoms: C_6  and  N_7
    5  A    between atoms: C_8  and  C_10
    6  A    between atoms: C_10  and  C_11
    7  A    between atoms: C_11  and  C_12
    8  A    between atoms: C_15  and  N_16
    9  A    between atoms: C_23  and  O_24
                            x       y       z     vdW  Elec       q    Type
                         _______ _______ _______ _____ _____    ______ ____

>  <TORSDO>
F 8

>  <SCORE>
-7.387

>  <RMSD_LB>
7.190

>  <RMSD_UB>
9.948

$$$$
CHEMBL79767
 OpenBabel10172500423D

 26 27  0  0  0  0  0  0  0  0999 V2000
  144.7660  140.4590  153.6160 N   0  0  0  0  0  0  0  0  0  0  0  0
  144.2710  139.2270  153.9860 C   0  0  0  0  0  0  0  0  0  0  0  0
  144.9140  138.1870  153.9000 O   0  0  0  0  0  0  0  0  0  0  0  0
  144.1730  141.2420  153.6710 H   0  0  0  0  0  0  0  0  0  0  0  0
  146.1230  140.6460  153.1520 C   0  0  0  0  0  2  0  0  0  0  0  0
  145.9570  140.3640  149.3450 C   0  0  0  0  0  0  0  0  0  0  0  0
  145.8740  140.0530  150.7080 C   0  0  0  0  0  3  0  0  0  0  0  0
  146.1870  141.0100  151.6910 C   0  0  0  0  0  0  0  0  0  0  0  0
  146.5680  142.2990  151.2890 C   0  0  0  0  0  3  0  0  0  0  0  0
  146.6530  142.6210  149.9340 C   0  0  0  0  0  3  0  0  0  0  0  0
  146.3540  141.6580  148.9730 C   0  0  0  0  0  0  0  0  0  0  0  0
  146.6140  138.4420  148.0970 C   0  0  0  0  0  1  0  0  0  0  0  0
  145.6880  139.4960  148.3210 O   0  0  0  0  0  0  0  0  0  0  0  0
  146.4440  141.9710  147.6430 O   0  0  0  0  0  0  0  0  0  0  0  0
  145.7630  142.4640  147.2300 H   0  0  0  0  0  0  0  0  0  0  0  0
  142.8370  139.2810  154.4900 C   0  0  0  0  0  2  0  0  0  0  0  0
  142.1970  137.8930  154.5020 C   0  0  0  0  0  2  0  0  0  0  0  0
  140.7280  137.9180  154.8600 C   0  0  0  0  0  0  0  0  0  0  0  0
  140.3110  137.7050  156.1800 C   0  0  0  0  0  3  0  0  0  0  0  0
  138.9540  137.7710  156.5210 C   0  0  0  0  0  3  0  0  0  0  0  0
  137.9810  138.0580  155.5540 C   0  0  0  0  0  0  0  0  0  0  0  0
  138.4010  138.2360  154.2310 C   0  0  0  0  0  3  0  0  0  0  0  0
  139.7560  138.1660  153.8850 C   0  0  0  0  0  3  0  0  0  0  0  0
  136.6010  138.1230  155.8230 N   0  0  0  0  0  0  0  0  0  0  0  0
  135.9010  137.2990  155.2000 N   0  0  0  0  0  4  0  0  0  0  0  0
  135.2480  136.5610  154.6300 N   0  0  0  0  0  2  0  0  0  0  0  0
  1  4  1  0  0  0  0
  1  2  1  0  0  0  0
  2 16  1  0  0  0  0
  3  2  2  0  0  0  0
  5  1  1  0  0  0  0
  6  7  1  0  0  0  0
  7  8  2  0  0  0  0
  8  5  1  0  0  0  0
  9  8  1  0  0  0  0
 10  9  2  0  0  0  0
 11  6  2  0  0  0  0
 11 10  1  0  0  0  0
 12 13  1  0  0  0  0
 13  6  1  0  0  0  0
 14 11  1  0  0  0  0
 15 14  1  0  0  0  0
 16 17  1  0  0  0  0
 17 18  1  0  0  0  0
 18 19  1  0  0  0  0
 19 20  2  0  0  0  0
 21 24  1  0  0  0  0
 21 20  1  0  0  0  0
 22 21  2  0  0  0  0
 23 22  1  0  0  0  0
 23 18  2  0  0  0  0
 25 24  2  0  0  0  0
 26 25  2  0  0  0  0
M  END
>  <MODEL>
8

>  <REMARK>
 VINA RESULT:    -7.245      2.485      3.638
 INTER + INTRA:         -11.182
 INTER:                 -10.584
 INTRA:                  -0.598
 UNBOUND:                -0.761
  Name = CHEMBL79767
  9 active torsions:
  status: ('A' for Active; 'I' for Inactive)
    1  A    between atoms: C_1  and  O_2
    2  A    between atoms: O_2  and  C_3
    3  A    between atoms: C_5  and  C_6
    4  A    between atoms: C_6  and  N_7
    5  A    between atoms: C_8  and  C_10
    6  A    between atoms: C_10  and  C_11
    7  A    between atoms: C_11  and  C_12
    8  A    between atoms: C_15  and  N_16
    9  A    between atoms: C_23  and  O_24
                            x       y       z     vdW  Elec       q    Type
                         _______ _______ _______ _____ _____    ______ ____

>  <TORSDO>
F 8

>  <SCORE>
-7.245

>  <RMSD_LB>
2.485

>  <RMSD_UB>
3.638

$$$$
CHEMBL79767
 OpenBabel10172500423D

 26 27  0  0  0  0  0  0  0  0999 V2000
  135.4100  135.0860  151.8360 N   0  0  0  0  0  0  0  0  0  0  0  0
  134.0750  135.1770  151.5050 C   0  0  0  0  0  0  0  0  0  0  0  0
  133.4880  136.2430  151.3510 O   0  0  0  0  0  0  0  0  0  0  0  0
  135.7990  134.1950  151.9890 H   0  0  0  0  0  0  0  0  0  0  0  0
  136.2610  136.2480  151.9670 C   0  0  0  0  0  2  0  0  0  0  0  0
  138.1320  137.6640  154.9820 C   0  0  0  0  0  0  0  0  0  0  0  0
  137.6740  137.4610  153.6750 C   0  0  0  0  0  3  0  0  0  0  0  0
  136.7170  136.4720  153.3860 C   0  0  0  0  0  0  0  0  0  0  0  0
  136.2040  135.6960  154.4350 C   0  0  0  0  0  3  0  0  0  0  0  0
  136.6500  135.8880  155.7430 C   0  0  0  0  0  3  0  0  0  0  0  0
  137.6110  136.8620  156.0100 C   0  0  0  0  0  0  0  0  0  0  0  0
  140.3830  138.4350  154.8330 C   0  0  0  0  0  1  0  0  0  0  0  0
  139.0710  138.5890  155.3550 O   0  0  0  0  0  0  0  0  0  0  0  0
  138.0550  137.0470  157.2910 O   0  0  0  0  0  0  0  0  0  0  0  0
  137.4920  137.4340  157.9320 H   0  0  0  0  0  0  0  0  0  0  0  0
  133.3940  133.8240  151.3730 C   0  0  0  0  0  2  0  0  0  0  0  0
  132.5610  133.7410  150.0930 C   0  0  0  0  0  2  0  0  0  0  0  0
  133.3900  133.4520  148.8620 C   0  0  0  0  0  0  0  0  0  0  0  0
  133.2130  134.1980  147.6900 C   0  0  0  0  0  3  0  0  0  0  0  0
  134.0100  133.9590  146.5630 C   0  0  0  0  0  3  0  0  0  0  0  0
  135.0080  132.9750  146.5810 C   0  0  0  0  0  0  0  0  0  0  0  0
  135.1570  132.2100  147.7430 C   0  0  0  0  0  3  0  0  0  0  0  0
  134.3590  132.4420  148.8710 C   0  0  0  0  0  3  0  0  0  0  0  0
  135.8320  132.6720  145.4810 N   0  0  0  0  0  0  0  0  0  0  0  0
  135.3040  131.9580  144.6050 N   0  0  0  0  0  4  0  0  0  0  0  0
  134.8390  131.2980  143.8020 N   0  0  0  0  0  2  0  0  0  0  0  0
  1  5  1  0  0  0  0
  1  4  1  0  0  0  0
  2  1  1  0  0  0  0
  3  2  2  0  0  0  0
  5  8  1  0  0  0  0
  6 13  1  0  0  0  0
  6 11  1  0  0  0  0
  7  6  2  0  0  0  0
  8  7  1  0  0  0  0
  8  9  2  0  0  0  0
  9 10  1  0  0  0  0
 10 11  2  0  0  0  0
 11 14  1  0  0  0  0
 12 13  1  0  0  0  0
 14 15  1  0  0  0  0
 16  2  1  0  0  0  0
 17 16  1  0  0  0  0
 18 23  1  0  0  0  0
 18 17  1  0  0  0  0
 19 18  2  0  0  0  0
 20 21  2  0  0  0  0
 20 19  1  0  0  0  0
 21 22  1  0  0  0  0
 22 23  2  0  0  0  0
 24 21  1  0  0  0  0
 25 24  2  0  0  0  0
 26 25  2  0  0  0  0
M  END
>  <MODEL>
9

>  <REMARK>
 VINA RESULT:    -7.153      7.952     10.812
 INTER + INTRA:         -11.050
 INTER:                 -10.289
 INTRA:                  -0.761
 UNBOUND:                -0.761
  Name = CHEMBL79767
  9 active torsions:
  status: ('A' for Active; 'I' for Inactive)
    1  A    between atoms: C_1  and  O_2
    2  A    between atoms: O_2  and  C_3
    3  A    between atoms: C_5  and  C_6
    4  A    between atoms: C_6  and  N_7
    5  A    between atoms: C_8  and  C_10
    6  A    between atoms: C_10  and  C_11
    7  A    between atoms: C_11  and  C_12
    8  A    between atoms: C_15  and  N_16
    9  A    between atoms: C_23  and  O_24
                            x       y       z     vdW  Elec       q    Type
                         _______ _______ _______ _____ _____    ______ ____

>  <TORSDO>
F 8

>  <SCORE>
-7.153

>  <RMSD_LB>
7.952

>  <RMSD_UB>
10.812

$$$$
