CHEMBL4093796
 OpenBabel10172500143D

 21 21  0  0  0  0  0  0  0  0999 V2000
  134.5410  134.3860  152.3510 C   0  0  0  0  0  3  0  0  0  0  0  0
  133.6430  133.6880  151.6400 C   0  0  0  0  0  3  0  0  0  0  0  0
  133.6290  133.6290  150.1720 C   0  0  0  0  0  0  0  0  0  0  0  0
  134.1090  132.4880  149.5230 C   0  0  0  0  0  3  0  0  0  0  0  0
  134.0690  132.3950  148.1290 C   0  0  0  0  0  3  0  0  0  0  0  0
  133.5370  133.4420  147.3680 C   0  0  0  0  0  0  0  0  0  0  0  0
  133.0440  134.5890  147.9960 C   0  0  0  0  0  0  0  0  0  0  0  0
  133.0910  134.6630  149.3950 C   0  0  0  0  0  3  0  0  0  0  0  0
  133.5090  133.3040  146.0080 O   0  0  0  0  0  0  0  0  0  0  0  0
  132.7460  133.5570  145.5270 H   0  0  0  0  0  0  0  0  0  0  0  0
  132.4880  135.7050  147.4320 O   0  0  0  0  0  0  0  0  0  0  0  0
  133.3560  136.7450  147.0120 C   0  0  0  0  0  1  0  0  0  0  0  0
  134.4740  134.3980  153.8390 C   0  0  0  0  0  0  0  0  0  0  0  0
  134.2810  133.3610  154.4710 O   0  0  0  0  0  0  0  0  0  0  0  0
  134.6110  135.7510  154.5130 C   0  0  0  0  0  2  0  0  0  0  0  0
  135.5050  135.6560  155.7460 C   0  0  0  0  0  2  0  0  0  0  0  0
  136.9760  135.8870  155.4060 C   0  0  0  0  0  2  0  0  0  0  0  0
  137.8370  135.8420  156.6690 C   0  0  0  0  0  2  0  0  0  0  0  0
  138.3410  137.2310  157.0530 C   0  0  0  0  0  2  0  0  0  0  0  0
  136.8370  136.7340  159.0090 C   0  0  0  0  0  1  0  0  0  0  0  0
  137.5180  137.8240  158.1960 C   0  0  0  0  0  2  0  0  0  0  0  0
  1 13  1  0  0  0  0
  2  1  2  0  0  0  0
  3  2  1  0  0  0  0
  4  3  1  0  0  0  0
  5  4  2  0  0  0  0
  6  7  2  0  0  0  0
  6  5  1  0  0  0  0
  7  8  1  0  0  0  0
  8  3  2  0  0  0  0
  9  6  1  0  0  0  0
 10  9  1  0  0  0  0
 11  7  1  0  0  0  0
 12 11  1  0  0  0  0
 13 14  2  0  0  0  0
 13 15  1  0  0  0  0
 15 16  1  0  0  0  0
 17 16  1  0  0  0  0
 17 18  1  0  0  0  0
 18 19  1  0  0  0  0
 19 21  1  0  0  0  0
 21 20  1  0  0  0  0
M  END
>  <MODEL>
1

>  <REMARK>
 VINA RESULT:    -6.015      0.000      0.000
 INTER + INTRA:         -10.567
 INTER:                  -9.930
 INTRA:                  -0.637
 UNBOUND:                -1.211
  Name = CHEMBL4093796
  12 active torsions:
  status: ('A' for Active; 'I' for Inactive)
    1  A    between atoms: C_1  and  C_2
    2  A    between atoms: C_2  and  C_3
    3  A    between atoms: C_3  and  C_4
    4  A    between atoms: C_4  and  C_5
    5  A    between atoms: C_5  and  C_6
    6  A    between atoms: C_6  and  C_7
    7  A    between atoms: C_7  and  C_8
    8  A    between atoms: C_8  and  C_10
    9  A    between atoms: C_11  and  C_12
   10  A    between atoms: C_15  and  O_16
   11  A    between atoms: C_17  and  O_18
   12  A    between atoms: O_18  and  C_19
                            x       y       z     vdW  Elec       q    Type
                         _______ _______ _______ _____ _____    ______ ____

>  <TORSDO>
F 10

>  <SCORE>
-6.015

>  <RMSD_LB>
0.000

>  <RMSD_UB>
0.000

$$$$
CHEMBL4093796
 OpenBabel10172500143D

 21 21  0  0  0  0  0  0  0  0999 V2000
  144.2500  137.2320  153.7500 C   0  0  0  0  0  3  0  0  0  0  0  0
  143.4330  137.7680  152.8300 C   0  0  0  0  0  3  0  0  0  0  0  0
  141.9780  137.8860  152.9960 C   0  0  0  0  0  0  0  0  0  0  0  0
  141.1400  137.6830  151.8960 C   0  0  0  0  0  3  0  0  0  0  0  0
  139.7520  137.7520  152.0400 C   0  0  0  0  0  3  0  0  0  0  0  0
  139.1850  138.0150  153.2920 C   0  0  0  0  0  0  0  0  0  0  0  0
  140.0040  138.2130  154.4080 C   0  0  0  0  0  0  0  0  0  0  0  0
  141.3940  138.1380  154.2440 C   0  0  0  0  0  3  0  0  0  0  0  0
  137.8220  138.0640  153.3880 O   0  0  0  0  0  0  0  0  0  0  0  0
  137.4190  138.4250  154.1530 H   0  0  0  0  0  0  0  0  0  0  0  0
  139.6430  138.4750  155.7020 O   0  0  0  0  0  0  0  0  0  0  0  0
  139.9220  137.4910  156.6850 C   0  0  0  0  0  1  0  0  0  0  0  0
  145.7140  137.1420  153.4930 C   0  0  0  0  0  0  0  0  0  0  0  0
  146.1840  136.2150  152.8370 O   0  0  0  0  0  0  0  0  0  0  0  0
  146.5790  138.2220  154.1170 C   0  0  0  0  0  2  0  0  0  0  0  0
  146.6480  139.4520  153.2150 C   0  0  0  0  0  2  0  0  0  0  0  0
  145.8620  140.6290  153.7920 C   0  0  0  0  0  2  0  0  0  0  0  0
  146.1110  141.8960  152.9730 C   0  0  0  0  0  2  0  0  0  0  0  0
  147.5200  141.9140  152.3850 C   0  0  0  0  0  2  0  0  0  0  0  0
  146.0940  142.6330  150.4400 C   0  0  0  0  0  1  0  0  0  0  0  0
  147.4970  142.2710  150.9000 C   0  0  0  0  0  2  0  0  0  0  0  0
  2  3  1  0  0  0  0
  2  1  2  0  0  0  0
  3  8  1  0  0  0  0
  4  5  1  0  0  0  0
  4  3  2  0  0  0  0
  5  6  2  0  0  0  0
  6  9  1  0  0  0  0
  6  7  1  0  0  0  0
  7 11  1  0  0  0  0
  8  7  2  0  0  0  0
  9 10  1  0  0  0  0
 11 12  1  0  0  0  0
 13  1  1  0  0  0  0
 13 15  1  0  0  0  0
 14 13  2  0  0  0  0
 16 17  1  0  0  0  0
 16 15  1  0  0  0  0
 18 17  1  0  0  0  0
 19 18  1  0  0  0  0
 20 21  1  0  0  0  0
 21 19  1  0  0  0  0
M  END
>  <MODEL>
2

>  <REMARK>
 VINA RESULT:    -5.987      8.013     11.014
 INTER + INTRA:         -10.523
 INTER:                  -9.603
 INTRA:                  -0.920
 UNBOUND:                -1.211
  Name = CHEMBL4093796
  12 active torsions:
  status: ('A' for Active; 'I' for Inactive)
    1  A    between atoms: C_1  and  C_2
    2  A    between atoms: C_2  and  C_3
    3  A    between atoms: C_3  and  C_4
    4  A    between atoms: C_4  and  C_5
    5  A    between atoms: C_5  and  C_6
    6  A    between atoms: C_6  and  C_7
    7  A    between atoms: C_7  and  C_8
    8  A    between atoms: C_8  and  C_10
    9  A    between atoms: C_11  and  C_12
   10  A    between atoms: C_15  and  O_16
   11  A    between atoms: C_17  and  O_18
   12  A    between atoms: O_18  and  C_19
                            x       y       z     vdW  Elec       q    Type
                         _______ _______ _______ _____ _____    ______ ____

>  <TORSDO>
F 10

>  <SCORE>
-5.987

>  <RMSD_LB>
8.013

>  <RMSD_UB>
11.014

$$$$
CHEMBL4093796
 OpenBabel10172500143D

 21 21  0  0  0  0  0  0  0  0999 V2000
  145.7910  138.7750  154.8960 C   0  0  0  0  0  3  0  0  0  0  0  0
  145.3040  138.3590  153.7170 C   0  0  0  0  0  3  0  0  0  0  0  0
  143.8710  138.2240  153.4250 C   0  0  0  0  0  0  0  0  0  0  0  0
  143.4650  137.6350  152.2240 C   0  0  0  0  0  3  0  0  0  0  0  0
  142.1060  137.4610  151.9440 C   0  0  0  0  0  3  0  0  0  0  0  0
  141.1380  137.8650  152.8690 C   0  0  0  0  0  0  0  0  0  0  0  0
  141.5210  138.4480  154.0800 C   0  0  0  0  0  0  0  0  0  0  0  0
  142.8880  138.6140  154.3440 C   0  0  0  0  0  3  0  0  0  0  0  0
  139.8210  137.6660  152.5570 O   0  0  0  0  0  0  0  0  0  0  0  0
  139.2670  138.4000  152.3790 H   0  0  0  0  0  0  0  0  0  0  0  0
  140.7330  138.9010  155.1030 O   0  0  0  0  0  0  0  0  0  0  0  0
  140.2670  137.9580  156.0550 C   0  0  0  0  0  1  0  0  0  0  0  0
  147.2620  138.8730  155.1080 C   0  0  0  0  0  0  0  0  0  0  0  0
  147.7700  138.5220  156.1720 O   0  0  0  0  0  0  0  0  0  0  0  0
  148.0740  139.4620  153.9700 C   0  0  0  0  0  2  0  0  0  0  0  0
  148.4750  140.9030  154.2790 C   0  0  0  0  0  2  0  0  0  0  0  0
  147.3180  141.8770  154.0640 C   0  0  0  0  0  2  0  0  0  0  0  0
  147.1690  142.2200  152.5810 C   0  0  0  0  0  2  0  0  0  0  0  0
  145.7400  141.9860  152.0950 C   0  0  0  0  0  2  0  0  0  0  0  0
  144.2790  140.7190  150.4840 C   0  0  0  0  0  1  0  0  0  0  0  0
  145.6930  140.9150  151.0060 C   0  0  0  0  0  2  0  0  0  0  0  0
  1 13  1  0  0  0  0
  2  1  2  0  0  0  0
  3  2  1  0  0  0  0
  3  8  1  0  0  0  0
  4  3  2  0  0  0  0
  5  4  1  0  0  0  0
  5  6  2  0  0  0  0
  6  7  1  0  0  0  0
  7  8  2  0  0  0  0
  7 11  1  0  0  0  0
  9  6  1  0  0  0  0
 10  9  1  0  0  0  0
 11 12  1  0  0  0  0
 13 14  2  0  0  0  0
 15 16  1  0  0  0  0
 15 13  1  0  0  0  0
 17 16  1  0  0  0  0
 18 17  1  0  0  0  0
 19 18  1  0  0  0  0
 20 21  1  0  0  0  0
 21 19  1  0  0  0  0
M  END
>  <MODEL>
3

>  <REMARK>
 VINA RESULT:    -5.953      8.736     11.974
 INTER + INTRA:         -10.471
 INTER:                  -8.877
 INTRA:                  -1.594
 UNBOUND:                -1.211
  Name = CHEMBL4093796
  12 active torsions:
  status: ('A' for Active; 'I' for Inactive)
    1  A    between atoms: C_1  and  C_2
    2  A    between atoms: C_2  and  C_3
    3  A    between atoms: C_3  and  C_4
    4  A    between atoms: C_4  and  C_5
    5  A    between atoms: C_5  and  C_6
    6  A    between atoms: C_6  and  C_7
    7  A    between atoms: C_7  and  C_8
    8  A    between atoms: C_8  and  C_10
    9  A    between atoms: C_11  and  C_12
   10  A    between atoms: C_15  and  O_16
   11  A    between atoms: C_17  and  O_18
   12  A    between atoms: O_18  and  C_19
                            x       y       z     vdW  Elec       q    Type
                         _______ _______ _______ _____ _____    ______ ____

>  <TORSDO>
F 10

>  <SCORE>
-5.953

>  <RMSD_LB>
8.736

>  <RMSD_UB>
11.974

$$$$
CHEMBL4093796
 OpenBabel10172500143D

 21 21  0  0  0  0  0  0  0  0999 V2000
  136.1500  135.4970  152.9100 C   0  0  0  0  0  3  0  0  0  0  0  0
  135.7630  135.2650  154.1730 C   0  0  0  0  0  3  0  0  0  0  0  0
  136.2790  136.0000  155.3350 C   0  0  0  0  0  0  0  0  0  0  0  0
  137.1170  137.1010  155.1380 C   0  0  0  0  0  3  0  0  0  0  0  0
  137.5880  137.8380  156.2290 C   0  0  0  0  0  3  0  0  0  0  0  0
  137.2160  137.4870  157.5310 C   0  0  0  0  0  0  0  0  0  0  0  0
  136.3730  136.3940  157.7510 C   0  0  0  0  0  0  0  0  0  0  0  0
  135.9090  135.6680  156.6450 C   0  0  0  0  0  3  0  0  0  0  0  0
  137.6930  138.2420  158.5670 O   0  0  0  0  0  0  0  0  0  0  0  0
  138.5670  138.1130  158.8760 H   0  0  0  0  0  0  0  0  0  0  0  0
  135.8990  135.9000  158.9360 O   0  0  0  0  0  0  0  0  0  0  0  0
  134.7280  135.1000  158.9060 C   0  0  0  0  0  1  0  0  0  0  0  0
  135.5820  134.6950  151.7910 C   0  0  0  0  0  0  0  0  0  0  0  0
  136.1430  134.6500  150.6980 O   0  0  0  0  0  0  0  0  0  0  0  0
  134.2690  133.9850  152.0640 C   0  0  0  0  0  2  0  0  0  0  0  0
  133.8160  133.1910  150.8410 C   0  0  0  0  0  2  0  0  0  0  0  0
  132.6360  133.8550  150.1330 C   0  0  0  0  0  2  0  0  0  0  0  0
  132.7220  133.6360  148.6210 C   0  0  0  0  0  2  0  0  0  0  0  0
  132.9110  134.9550  147.8750 C   0  0  0  0  0  2  0  0  0  0  0  0
  134.3770  136.8730  148.5880 C   0  0  0  0  0  1  0  0  0  0  0  0
  133.0810  136.1220  148.8470 C   0  0  0  0  0  2  0  0  0  0  0  0
  1  2  2  0  0  0  0
  2  3  1  0  0  0  0
  3  8  1  0  0  0  0
  4  3  2  0  0  0  0
  4  5  1  0  0  0  0
  5  6  2  0  0  0  0
  6  7  1  0  0  0  0
  6  9  1  0  0  0  0
  7 11  1  0  0  0  0
  8  7  2  0  0  0  0
  9 10  1  0  0  0  0
 12 11  1  0  0  0  0
 13 15  1  0  0  0  0
 13  1  1  0  0  0  0
 14 13  2  0  0  0  0
 16 15  1  0  0  0  0
 17 16  1  0  0  0  0
 18 17  1  0  0  0  0
 19 18  1  0  0  0  0
 19 21  1  0  0  0  0
 20 21  1  0  0  0  0
M  END
>  <MODEL>
4

>  <REMARK>
 VINA RESULT:    -5.814      2.567      8.881
 INTER + INTRA:         -10.254
 INTER:                  -9.356
 INTRA:                  -0.899
 UNBOUND:                -1.211
  Name = CHEMBL4093796
  12 active torsions:
  status: ('A' for Active; 'I' for Inactive)
    1  A    between atoms: C_1  and  C_2
    2  A    between atoms: C_2  and  C_3
    3  A    between atoms: C_3  and  C_4
    4  A    between atoms: C_4  and  C_5
    5  A    between atoms: C_5  and  C_6
    6  A    between atoms: C_6  and  C_7
    7  A    between atoms: C_7  and  C_8
    8  A    between atoms: C_8  and  C_10
    9  A    between atoms: C_11  and  C_12
   10  A    between atoms: C_15  and  O_16
   11  A    between atoms: C_17  and  O_18
   12  A    between atoms: O_18  and  C_19
                            x       y       z     vdW  Elec       q    Type
                         _______ _______ _______ _____ _____    ______ ____

>  <TORSDO>
F 10

>  <SCORE>
-5.814

>  <RMSD_LB>
2.567

>  <RMSD_UB>
8.881

$$$$
CHEMBL4093796
 OpenBabel10172500143D

 21 21  0  0  0  0  0  0  0  0999 V2000
  136.2090  135.4290  152.7210 C   0  0  0  0  0  3  0  0  0  0  0  0
  135.8230  135.3190  154.0010 C   0  0  0  0  0  3  0  0  0  0  0  0
  136.3990  136.1030  155.1010 C   0  0  0  0  0  0  0  0  0  0  0  0
  136.1010  135.7610  156.4220 C   0  0  0  0  0  3  0  0  0  0  0  0
  136.6700  136.4690  157.4840 C   0  0  0  0  0  3  0  0  0  0  0  0
  137.5530  137.5250  157.2350 C   0  0  0  0  0  0  0  0  0  0  0  0
  137.8730  137.8800  155.9210 C   0  0  0  0  0  0  0  0  0  0  0  0
  137.2940  137.1560  154.8690 C   0  0  0  0  0  3  0  0  0  0  0  0
  138.0940  138.1840  158.3040 O   0  0  0  0  0  0  0  0  0  0  0  0
  137.6310  138.2140  159.1180 H   0  0  0  0  0  0  0  0  0  0  0  0
  138.7090  138.8680  155.4780 O   0  0  0  0  0  0  0  0  0  0  0  0
  138.9560  138.9580  154.0840 C   0  0  0  0  0  1  0  0  0  0  0  0
  135.5760  134.5840  151.6700 C   0  0  0  0  0  0  0  0  0  0  0  0
  136.1170  134.4270  150.5770 O   0  0  0  0  0  0  0  0  0  0  0  0
  134.2280  133.9770  152.0090 C   0  0  0  0  0  2  0  0  0  0  0  0
  133.6910  133.1580  150.8380 C   0  0  0  0  0  2  0  0  0  0  0  0
  132.7680  133.9810  149.9400 C   0  0  0  0  0  2  0  0  0  0  0  0
  132.7130  133.3860  148.5320 C   0  0  0  0  0  2  0  0  0  0  0  0
  134.0430  132.7440  148.1440 C   0  0  0  0  0  2  0  0  0  0  0  0
  136.3050  133.2740  147.1760 C   0  0  0  0  0  1  0  0  0  0  0  0
  134.8280  133.6350  147.1820 C   0  0  0  0  0  2  0  0  0  0  0  0
  1  2  2  0  0  0  0
  2  3  1  0  0  0  0
  3  4  1  0  0  0  0
  4  5  2  0  0  0  0
  6  5  1  0  0  0  0
  6  9  1  0  0  0  0
  7  6  2  0  0  0  0
  8  3  2  0  0  0  0
  8  7  1  0  0  0  0
  9 10  1  0  0  0  0
 11  7  1  0  0  0  0
 12 11  1  0  0  0  0
 13 15  1  0  0  0  0
 13  1  1  0  0  0  0
 14 13  2  0  0  0  0
 16 15  1  0  0  0  0
 17 16  1  0  0  0  0
 18 17  1  0  0  0  0
 19 18  1  0  0  0  0
 20 21  1  0  0  0  0
 21 19  1  0  0  0  0
M  END
>  <MODEL>
5

>  <REMARK>
 VINA RESULT:    -5.767      2.859      8.775
 INTER + INTRA:         -10.181
 INTER:                  -9.418
 INTRA:                  -0.763
 UNBOUND:                -1.211
  Name = CHEMBL4093796
  12 active torsions:
  status: ('A' for Active; 'I' for Inactive)
    1  A    between atoms: C_1  and  C_2
    2  A    between atoms: C_2  and  C_3
    3  A    between atoms: C_3  and  C_4
    4  A    between atoms: C_4  and  C_5
    5  A    between atoms: C_5  and  C_6
    6  A    between atoms: C_6  and  C_7
    7  A    between atoms: C_7  and  C_8
    8  A    between atoms: C_8  and  C_10
    9  A    between atoms: C_11  and  C_12
   10  A    between atoms: C_15  and  O_16
   11  A    between atoms: C_17  and  O_18
   12  A    between atoms: O_18  and  C_19
                            x       y       z     vdW  Elec       q    Type
                         _______ _______ _______ _____ _____    ______ ____

>  <TORSDO>
F 10

>  <SCORE>
-5.767

>  <RMSD_LB>
2.859

>  <RMSD_UB>
8.775

$$$$
CHEMBL4093796
 OpenBabel10172500143D

 21 21  0  0  0  0  0  0  0  0999 V2000
  143.6500  138.2410  151.5500 C   0  0  0  0  0  3  0  0  0  0  0  0
  142.6310  137.3740  151.6560 C   0  0  0  0  0  3  0  0  0  0  0  0
  141.3600  137.6840  152.3250 C   0  0  0  0  0  0  0  0  0  0  0  0
  140.1640  137.5910  151.6080 C   0  0  0  0  0  3  0  0  0  0  0  0
  138.9410  137.8430  152.2350 C   0  0  0  0  0  3  0  0  0  0  0  0
  138.9000  138.1820  153.5920 C   0  0  0  0  0  0  0  0  0  0  0  0
  140.0830  138.2710  154.3310 C   0  0  0  0  0  0  0  0  0  0  0  0
  141.3010  138.0140  153.6850 C   0  0  0  0  0  3  0  0  0  0  0  0
  137.6800  138.4100  154.1660 O   0  0  0  0  0  0  0  0  0  0  0  0
  136.9980  137.7730  154.0840 H   0  0  0  0  0  0  0  0  0  0  0  0
  140.2490  138.5810  155.6530 O   0  0  0  0  0  0  0  0  0  0  0  0
  140.3140  137.5150  156.5860 C   0  0  0  0  0  1  0  0  0  0  0  0
  144.9100  137.8380  150.8640 C   0  0  0  0  0  0  0  0  0  0  0  0
  144.9310  136.8760  150.0990 O   0  0  0  0  0  0  0  0  0  0  0  0
  146.1510  138.6450  151.1960 C   0  0  0  0  0  2  0  0  0  0  0  0
  145.8560  140.1420  151.1370 C   0  0  0  0  0  2  0  0  0  0  0  0
  146.9870  140.9220  150.4680 C   0  0  0  0  0  2  0  0  0  0  0  0
  147.3920  142.1250  151.3230 C   0  0  0  0  0  2  0  0  0  0  0  0
  148.8020  141.9590  151.8870 C   0  0  0  0  0  2  0  0  0  0  0  0
  147.4120  141.9720  153.9860 C   0  0  0  0  0  1  0  0  0  0  0  0
  148.7670  141.6400  153.3810 C   0  0  0  0  0  2  0  0  0  0  0  0
  1  2  2  0  0  0  0
  2  3  1  0  0  0  0
  3  8  1  0  0  0  0
  4  5  1  0  0  0  0
  4  3  2  0  0  0  0
  5  6  2  0  0  0  0
  6  9  1  0  0  0  0
  6  7  1  0  0  0  0
  7 11  1  0  0  0  0
  8  7  2  0  0  0  0
 10  9  1  0  0  0  0
 11 12  1  0  0  0  0
 13 15  1  0  0  0  0
 13  1  1  0  0  0  0
 14 13  2  0  0  0  0
 16 15  1  0  0  0  0
 17 16  1  0  0  0  0
 17 18  1  0  0  0  0
 18 19  1  0  0  0  0
 19 21  1  0  0  0  0
 21 20  1  0  0  0  0
M  END
>  <MODEL>
6

>  <REMARK>
 VINA RESULT:    -5.766      8.493     11.091
 INTER + INTRA:         -10.179
 INTER:                  -9.434
 INTRA:                  -0.746
 UNBOUND:                -1.211
  Name = CHEMBL4093796
  12 active torsions:
  status: ('A' for Active; 'I' for Inactive)
    1  A    between atoms: C_1  and  C_2
    2  A    between atoms: C_2  and  C_3
    3  A    between atoms: C_3  and  C_4
    4  A    between atoms: C_4  and  C_5
    5  A    between atoms: C_5  and  C_6
    6  A    between atoms: C_6  and  C_7
    7  A    between atoms: C_7  and  C_8
    8  A    between atoms: C_8  and  C_10
    9  A    between atoms: C_11  and  C_12
   10  A    between atoms: C_15  and  O_16
   11  A    between atoms: C_17  and  O_18
   12  A    between atoms: O_18  and  C_19
                            x       y       z     vdW  Elec       q    Type
                         _______ _______ _______ _____ _____    ______ ____

>  <TORSDO>
F 10

>  <SCORE>
-5.766

>  <RMSD_LB>
8.493

>  <RMSD_UB>
11.091

$$$$
CHEMBL4093796
 OpenBabel10172500143D

 21 21  0  0  0  0  0  0  0  0999 V2000
  134.9310  134.2530  153.0360 C   0  0  0  0  0  3  0  0  0  0  0  0
  135.7150  135.1130  153.7040 C   0  0  0  0  0  3  0  0  0  0  0  0
  135.6900  135.2770  155.1640 C   0  0  0  0  0  0  0  0  0  0  0  0
  134.6950  134.6420  155.9130 C   0  0  0  0  0  3  0  0  0  0  0  0
  134.6770  134.7540  157.3060 C   0  0  0  0  0  3  0  0  0  0  0  0
  135.6610  135.4960  157.9670 C   0  0  0  0  0  0  0  0  0  0  0  0
  136.6700  136.1320  157.2390 C   0  0  0  0  0  0  0  0  0  0  0  0
  136.6740  136.0080  155.8430 C   0  0  0  0  0  3  0  0  0  0  0  0
  135.6090  135.5690  159.3320 O   0  0  0  0  0  0  0  0  0  0  0  0
  135.3940  134.8080  159.8330 H   0  0  0  0  0  0  0  0  0  0  0  0
  137.7120  136.8910  157.6990 O   0  0  0  0  0  0  0  0  0  0  0  0
  138.6850  137.3270  156.7630 C   0  0  0  0  0  1  0  0  0  0  0  0
  135.0150  134.1590  151.5510 C   0  0  0  0  0  0  0  0  0  0  0  0
  136.0690  134.3910  150.9630 O   0  0  0  0  0  0  0  0  0  0  0  0
  133.7310  133.8110  150.8210 C   0  0  0  0  0  2  0  0  0  0  0  0
  134.0080  132.8550  149.6630 C   0  0  0  0  0  2  0  0  0  0  0  0
  133.5220  133.4180  148.3280 C   0  0  0  0  0  2  0  0  0  0  0  0
  133.9750  134.8690  148.1560 C   0  0  0  0  0  2  0  0  0  0  0  0
  133.0540  135.6330  147.2070 C   0  0  0  0  0  2  0  0  0  0  0  0
  132.7310  136.9760  149.3120 C   0  0  0  0  0  1  0  0  0  0  0  0
  132.6530  136.9860  147.7930 C   0  0  0  0  0  2  0  0  0  0  0  0
  1  2  2  0  0  0  0
  2  3  1  0  0  0  0
  3  8  2  0  0  0  0
  3  4  1  0  0  0  0
  4  5  2  0  0  0  0
  5  6  1  0  0  0  0
  6  9  1  0  0  0  0
  7 11  1  0  0  0  0
  7  6  2  0  0  0  0
  8  7  1  0  0  0  0
  9 10  1  0  0  0  0
 12 11  1  0  0  0  0
 13  1  1  0  0  0  0
 14 13  2  0  0  0  0
 15 13  1  0  0  0  0
 16 15  1  0  0  0  0
 17 16  1  0  0  0  0
 18 17  1  0  0  0  0
 19 21  1  0  0  0  0
 19 18  1  0  0  0  0
 21 20  1  0  0  0  0
M  END
>  <MODEL>
7

>  <REMARK>
 VINA RESULT:    -5.747      2.325      8.710
 INTER + INTRA:         -10.150
 INTER:                  -9.411
 INTRA:                  -0.739
 UNBOUND:                -1.211
  Name = CHEMBL4093796
  12 active torsions:
  status: ('A' for Active; 'I' for Inactive)
    1  A    between atoms: C_1  and  C_2
    2  A    between atoms: C_2  and  C_3
    3  A    between atoms: C_3  and  C_4
    4  A    between atoms: C_4  and  C_5
    5  A    between atoms: C_5  and  C_6
    6  A    between atoms: C_6  and  C_7
    7  A    between atoms: C_7  and  C_8
    8  A    between atoms: C_8  and  C_10
    9  A    between atoms: C_11  and  C_12
   10  A    between atoms: C_15  and  O_16
   11  A    between atoms: C_17  and  O_18
   12  A    between atoms: O_18  and  C_19
                            x       y       z     vdW  Elec       q    Type
                         _______ _______ _______ _____ _____    ______ ____

>  <TORSDO>
F 10

>  <SCORE>
-5.747

>  <RMSD_LB>
2.325

>  <RMSD_UB>
8.710

$$$$
CHEMBL4093796
 OpenBabel10172500143D

 21 21  0  0  0  0  0  0  0  0999 V2000
  136.7310  136.4530  151.3610 C   0  0  0  0  0  3  0  0  0  0  0  0
  136.1490  135.4010  151.9580 C   0  0  0  0  0  3  0  0  0  0  0  0
  135.8240  135.3490  153.3890 C   0  0  0  0  0  0  0  0  0  0  0  0
  134.8160  134.4900  153.8360 C   0  0  0  0  0  3  0  0  0  0  0  0
  134.5170  134.3960  155.1980 C   0  0  0  0  0  3  0  0  0  0  0  0
  135.2320  135.1550  156.1310 C   0  0  0  0  0  0  0  0  0  0  0  0
  136.2500  136.0140  155.7080 C   0  0  0  0  0  0  0  0  0  0  0  0
  136.5360  136.0940  154.3380 C   0  0  0  0  0  3  0  0  0  0  0  0
  134.9120  135.0230  157.4540 O   0  0  0  0  0  0  0  0  0  0  0  0
  135.2920  135.5990  158.0870 H   0  0  0  0  0  0  0  0  0  0  0  0
  137.0550  136.8260  156.4580 O   0  0  0  0  0  0  0  0  0  0  0  0
  137.2600  138.1580  156.0150 C   0  0  0  0  0  1  0  0  0  0  0  0
  137.0370  136.4150  149.9040 C   0  0  0  0  0  0  0  0  0  0  0  0
  138.1380  136.7620  149.4800 O   0  0  0  0  0  0  0  0  0  0  0  0
  135.9110  135.9740  148.9870 C   0  0  0  0  0  2  0  0  0  0  0  0
  136.0250  134.4850  148.6650 C   0  0  0  0  0  2  0  0  0  0  0  0
  134.7240  133.9220  148.0960 C   0  0  0  0  0  2  0  0  0  0  0  0
  134.2450  132.7280  148.9240 C   0  0  0  0  0  2  0  0  0  0  0  0
  133.8900  133.1440  150.3500 C   0  0  0  0  0  2  0  0  0  0  0  0
  132.6650  135.2930  150.8180 C   0  0  0  0  0  1  0  0  0  0  0  0
  132.5290  133.8360  150.4040 C   0  0  0  0  0  2  0  0  0  0  0  0
  1  2  2  0  0  0  0
  2  3  1  0  0  0  0
  3  4  2  0  0  0  0
  3  8  1  0  0  0  0
  4  5  1  0  0  0  0
  5  6  2  0  0  0  0
  6  9  1  0  0  0  0
  7  6  1  0  0  0  0
  7 11  1  0  0  0  0
  8  7  2  0  0  0  0
  9 10  1  0  0  0  0
 12 11  1  0  0  0  0
 13  1  1  0  0  0  0
 14 13  2  0  0  0  0
 15 13  1  0  0  0  0
 16 15  1  0  0  0  0
 17 16  1  0  0  0  0
 17 18  1  0  0  0  0
 18 19  1  0  0  0  0
 19 21  1  0  0  0  0
 21 20  1  0  0  0  0
M  END
>  <MODEL>
8

>  <REMARK>
 VINA RESULT:    -5.668      2.693      7.815
 INTER + INTRA:         -10.027
 INTER:                  -8.584
 INTRA:                  -1.443
 UNBOUND:                -1.211
  Name = CHEMBL4093796
  12 active torsions:
  status: ('A' for Active; 'I' for Inactive)
    1  A    between atoms: C_1  and  C_2
    2  A    between atoms: C_2  and  C_3
    3  A    between atoms: C_3  and  C_4
    4  A    between atoms: C_4  and  C_5
    5  A    between atoms: C_5  and  C_6
    6  A    between atoms: C_6  and  C_7
    7  A    between atoms: C_7  and  C_8
    8  A    between atoms: C_8  and  C_10
    9  A    between atoms: C_11  and  C_12
   10  A    between atoms: C_15  and  O_16
   11  A    between atoms: C_17  and  O_18
   12  A    between atoms: O_18  and  C_19
                            x       y       z     vdW  Elec       q    Type
                         _______ _______ _______ _____ _____    ______ ____

>  <TORSDO>
F 10

>  <SCORE>
-5.668

>  <RMSD_LB>
2.693

>  <RMSD_UB>
7.815

$$$$
CHEMBL4093796
 OpenBabel10172500143D

 21 21  0  0  0  0  0  0  0  0999 V2000
  142.9120  139.9250  151.2210 C   0  0  0  0  0  3  0  0  0  0  0  0
  144.1860  140.2400  150.9440 C   0  0  0  0  0  3  0  0  0  0  0  0
  145.1650  140.6580  151.9560 C   0  0  0  0  0  0  0  0  0  0  0  0
  145.7720  141.9120  151.8520 C   0  0  0  0  0  3  0  0  0  0  0  0
  146.6770  142.3460  152.8250 C   0  0  0  0  0  3  0  0  0  0  0  0
  146.9780  141.5300  153.9210 C   0  0  0  0  0  0  0  0  0  0  0  0
  146.3770  140.2750  154.0500 C   0  0  0  0  0  0  0  0  0  0  0  0
  145.4710  139.8580  153.0650 C   0  0  0  0  0  3  0  0  0  0  0  0
  147.8620  141.9980  154.8530 O   0  0  0  0  0  0  0  0  0  0  0  0
  147.5450  142.4230  155.6260 H   0  0  0  0  0  0  0  0  0  0  0  0
  146.5370  139.3430  155.0390 O   0  0  0  0  0  0  0  0  0  0  0  0
  147.1510  138.1100  154.7030 C   0  0  0  0  0  1  0  0  0  0  0  0
  141.9830  139.5220  150.1290 C   0  0  0  0  0  0  0  0  0  0  0  0
  141.3590  140.3660  149.4880 O   0  0  0  0  0  0  0  0  0  0  0  0
  141.8220  138.0320  149.8910 C   0  0  0  0  0  2  0  0  0  0  0  0
  140.5070  137.5270  150.4780 C   0  0  0  0  0  2  0  0  0  0  0  0
  140.5930  137.3300  151.9910 C   0  0  0  0  0  2  0  0  0  0  0  0
  139.6840  138.3220  152.7170 C   0  0  0  0  0  2  0  0  0  0  0  0
  140.0390  138.4240  154.1990 C   0  0  0  0  0  2  0  0  0  0  0  0
  142.2970  139.3100  154.8710 C   0  0  0  0  0  1  0  0  0  0  0  0
  141.5080  138.0830  154.4420 C   0  0  0  0  0  2  0  0  0  0  0  0
  2  1  2  0  0  0  0
  2  3  1  0  0  0  0
  3  8  1  0  0  0  0
  4  3  2  0  0  0  0
  4  5  1  0  0  0  0
  5  6  2  0  0  0  0
  6  7  1  0  0  0  0
  6  9  1  0  0  0  0
  7 11  1  0  0  0  0
  8  7  2  0  0  0  0
  9 10  1  0  0  0  0
 12 11  1  0  0  0  0
 13  1  1  0  0  0  0
 14 13  2  0  0  0  0
 15 13  1  0  0  0  0
 15 16  1  0  0  0  0
 16 17  1  0  0  0  0
 17 18  1  0  0  0  0
 18 19  1  0  0  0  0
 19 21  1  0  0  0  0
 21 20  1  0  0  0  0
M  END
>  <MODEL>
9

>  <REMARK>
 VINA RESULT:    -5.597      8.956     12.379
 INTER + INTRA:          -9.916
 INTER:                  -8.705
 INTRA:                  -1.211
 UNBOUND:                -1.211
  Name = CHEMBL4093796
  12 active torsions:
  status: ('A' for Active; 'I' for Inactive)
    1  A    between atoms: C_1  and  C_2
    2  A    between atoms: C_2  and  C_3
    3  A    between atoms: C_3  and  C_4
    4  A    between atoms: C_4  and  C_5
    5  A    between atoms: C_5  and  C_6
    6  A    between atoms: C_6  and  C_7
    7  A    between atoms: C_7  and  C_8
    8  A    between atoms: C_8  and  C_10
    9  A    between atoms: C_11  and  C_12
   10  A    between atoms: C_15  and  O_16
   11  A    between atoms: C_17  and  O_18
   12  A    between atoms: O_18  and  C_19
                            x       y       z     vdW  Elec       q    Type
                         _______ _______ _______ _____ _____    ______ ____

>  <TORSDO>
F 10

>  <SCORE>
-5.597

>  <RMSD_LB>
8.956

>  <RMSD_UB>
12.379

$$$$
