CHEMBL1572869
 OpenBabel10172500203D

 29 30  0  0  0  0  0  0  0  0999 V2000
  146.1500  140.1930  154.2840 N   0  0  0  0  0  0  0  0  0  0  0  0
  147.4920  140.1480  154.5950 C   0  0  0  0  0  0  0  0  0  0  0  0
  148.0220  139.1880  155.1460 O   0  0  0  0  0  0  0  0  0  0  0  0
  145.7530  141.0300  153.9490 H   0  0  0  0  0  0  0  0  0  0  0  0
  145.3220  139.0180  154.4470 C   0  0  0  0  0  2  0  0  0  0  0  0
  144.5780  136.9080  150.7300 C   0  0  0  0  0  0  0  0  0  0  0  0
  143.5520  137.1190  151.6620 C   0  0  0  0  0  3  0  0  0  0  0  0
  143.7880  137.8270  152.8450 C   0  0  0  0  0  3  0  0  0  0  0  0
  145.0610  138.3200  153.1400 C   0  0  0  0  0  0  0  0  0  0  0  0
  146.0840  138.1250  152.2010 C   0  0  0  0  0  3  0  0  0  0  0  0
  145.8520  137.4370  150.9980 C   0  0  0  0  0  0  0  0  0  0  0  0
  143.1170  135.6020  149.3750 C   0  0  0  0  0  1  0  0  0  0  0  0
  144.4150  136.1350  149.6110 O   0  0  0  0  0  0  0  0  0  0  0  0
  146.9750  137.3200  150.2170 O   0  0  0  0  0  0  0  0  0  0  0  0
  147.7560  136.1450  150.3970 C   0  0  0  0  0  1  0  0  0  0  0  0
  148.2570  141.4080  154.2310 C   0  0  0  0  0  2  0  0  0  0  0  0
  149.0820  141.2500  152.9520 C   0  0  0  0  0  2  0  0  0  0  0  0
  148.6280  142.2090  151.8500 C   0  0  0  0  0  2  0  0  0  0  0  0
  147.6730  141.5930  150.9470 N   0  0  0  0  0  0  0  0  0  0  0  0
  146.3200  141.7700  151.1150 C   0  0  0  0  0  0  0  0  0  0  0  0
  145.8400  142.4770  151.9980 O   0  0  0  0  0  0  0  0  0  0  0  0
  148.0000  141.0390  150.2020 H   0  0  0  0  0  0  0  0  0  0  0  0
  145.4130  141.0710  150.1600 C   0  0  0  0  0  0  0  0  0  0  0  0
  145.8540  140.5680  148.9280 C   0  0  0  0  0  3  0  0  0  0  0  0
  144.9700  139.8560  148.1080 C   0  0  0  0  0  3  0  0  0  0  0  0
  143.6520  139.6440  148.5180 C   0  0  0  0  0  0  0  0  0  0  0  0
  142.5810  138.7390  147.5240 Cl  0  0  0  0  0  0  0  0  0  0  0  0
  143.2060  140.1450  149.7380 C   0  0  0  0  0  3  0  0  0  0  0  0
  144.0870  140.8530  150.5580 C   0  0  0  0  0  3  0  0  0  0  0  0
  1  5  1  0  0  0  0
  1  2  1  0  0  0  0
  2  3  2  0  0  0  0
  4  1  1  0  0  0  0
  6 11  2  0  0  0  0
  6  7  1  0  0  0  0
  7  8  2  0  0  0  0
  8  9  1  0  0  0  0
  9  5  1  0  0  0  0
 10  9  2  0  0  0  0
 11 10  1  0  0  0  0
 12 13  1  0  0  0  0
 13  6  1  0  0  0  0
 14 15  1  0  0  0  0
 14 11  1  0  0  0  0
 16  2  1  0  0  0  0
 17 16  1  0  0  0  0
 18 17  1  0  0  0  0
 19 20  1  0  0  0  0
 19 18  1  0  0  0  0
 20 21  2  0  0  0  0
 22 19  1  0  0  0  0
 23 29  1  0  0  0  0
 23 20  1  0  0  0  0
 24 23  2  0  0  0  0
 25 26  2  0  0  0  0
 25 24  1  0  0  0  0
 26 28  1  0  0  0  0
 27 26  1  0  0  0  0
 28 29  2  0  0  0  0
M  END
>  <MODEL>
1

>  <REMARK>
 VINA RESULT:    -7.207      0.000      0.000
 INTER + INTRA:         -12.005
 INTER:                  -9.210
 INTRA:                  -2.795
 UNBOUND:                -1.005
  Name = CHEMBL1572869
  11 active torsions:
  status: ('A' for Active; 'I' for Inactive)
    1  A    between atoms: C_1  and  O_2
    2  A    between atoms: O_2  and  C_3
    3  A    between atoms: C_6  and  C_7
    4  A    between atoms: C_7  and  N_8
    5  A    between atoms: C_9  and  C_11
    6  A    between atoms: C_11  and  C_12
    7  A    between atoms: C_12  and  C_13
    8  A    between atoms: C_13  and  N_14
    9  A    between atoms: C_15  and  C_17
   10  A    between atoms: C_25  and  O_26
   11  A    between atoms: O_26  and  C_27
                            x       y       z     vdW  Elec       q    Type
                         _______ _______ _______ _____ _____    ______ ____

>  <TORSDO>
F 9

>  <SCORE>
-7.207

>  <RMSD_LB>
0.000

>  <RMSD_UB>
0.000

$$$$
CHEMBL1572869
 OpenBabel10172500203D

 29 30  0  0  0  0  0  0  0  0999 V2000
  144.9470  140.7500  154.3780 N   0  0  0  0  0  0  0  0  0  0  0  0
  146.2760  140.9130  154.0530 C   0  0  0  0  0  0  0  0  0  0  0  0
  147.1530  140.1280  154.3990 O   0  0  0  0  0  0  0  0  0  0  0  0
  144.3020  141.4660  154.1750 H   0  0  0  0  0  0  0  0  0  0  0  0
  144.4940  139.5320  155.0140 C   0  0  0  0  0  2  0  0  0  0  0  0
  140.8490  138.0890  153.1560 C   0  0  0  0  0  0  0  0  0  0  0  0
  142.1050  137.8170  152.5960 C   0  0  0  0  0  3  0  0  0  0  0  0
  143.2800  138.2570  153.2140 C   0  0  0  0  0  3  0  0  0  0  0  0
  143.2290  139.0020  154.3940 C   0  0  0  0  0  0  0  0  0  0  0  0
  141.9750  139.2600  154.9650 C   0  0  0  0  0  3  0  0  0  0  0  0
  140.7900  138.8010  154.3660 C   0  0  0  0  0  0  0  0  0  0  0  0
  139.3830  138.4350  151.3100 C   0  0  0  0  0  1  0  0  0  0  0  0
  139.6740  137.7650  152.5310 O   0  0  0  0  0  0  0  0  0  0  0  0
  139.6590  139.1700  155.0510 O   0  0  0  0  0  0  0  0  0  0  0  0
  138.9640  138.1360  155.7360 C   0  0  0  0  0  1  0  0  0  0  0  0
  146.5710  142.1740  153.2580 C   0  0  0  0  0  2  0  0  0  0  0  0
  145.7480  142.2670  151.9710 C   0  0  0  0  0  2  0  0  0  0  0  0
  146.2030  141.2520  150.9200 C   0  0  0  0  0  2  0  0  0  0  0  0
  145.1760  140.2690  150.6270 N   0  0  0  0  0  0  0  0  0  0  0  0
  145.4700  139.1180  149.9350 C   0  0  0  0  0  0  0  0  0  0  0  0
  146.6040  138.8320  149.5590 O   0  0  0  0  0  0  0  0  0  0  0  0
  144.2530  140.4300  150.9300 H   0  0  0  0  0  0  0  0  0  0  0  0
  144.3450  138.1820  149.6500 C   0  0  0  0  0  0  0  0  0  0  0  0
  143.1560  138.5950  149.0320 C   0  0  0  0  0  3  0  0  0  0  0  0
  142.1660  137.6520  148.7250 C   0  0  0  0  0  3  0  0  0  0  0  0
  142.3640  136.3050  149.0300 C   0  0  0  0  0  0  0  0  0  0  0  0
  141.1620  135.1470  148.6180 Cl  0  0  0  0  0  0  0  0  0  0  0  0
  143.5410  135.8890  149.6480 C   0  0  0  0  0  3  0  0  0  0  0  0
  144.5300  136.8260  149.9530 C   0  0  0  0  0  3  0  0  0  0  0  0
  1  5  1  0  0  0  0
  2  1  1  0  0  0  0
  2  3  2  0  0  0  0
  4  1  1  0  0  0  0
  6 11  1  0  0  0  0
  7  6  2  0  0  0  0
  7  8  1  0  0  0  0
  8  9  2  0  0  0  0
  9 10  1  0  0  0  0
  9  5  1  0  0  0  0
 11 10  2  0  0  0  0
 11 14  1  0  0  0  0
 12 13  1  0  0  0  0
 13  6  1  0  0  0  0
 14 15  1  0  0  0  0
 16  2  1  0  0  0  0
 17 16  1  0  0  0  0
 18 17  1  0  0  0  0
 19 18  1  0  0  0  0
 19 22  1  0  0  0  0
 20 19  1  0  0  0  0
 21 20  2  0  0  0  0
 23 20  1  0  0  0  0
 23 29  1  0  0  0  0
 24 23  2  0  0  0  0
 25 26  2  0  0  0  0
 25 24  1  0  0  0  0
 26 28  1  0  0  0  0
 27 26  1  0  0  0  0
 28 29  2  0  0  0  0
M  END
>  <MODEL>
2

>  <REMARK>
 VINA RESULT:    -7.095      2.966      4.358
 INTER + INTRA:         -11.834
 INTER:                  -9.992
 INTRA:                  -1.841
 UNBOUND:                -1.005
  Name = CHEMBL1572869
  11 active torsions:
  status: ('A' for Active; 'I' for Inactive)
    1  A    between atoms: C_1  and  O_2
    2  A    between atoms: O_2  and  C_3
    3  A    between atoms: C_6  and  C_7
    4  A    between atoms: C_7  and  N_8
    5  A    between atoms: C_9  and  C_11
    6  A    between atoms: C_11  and  C_12
    7  A    between atoms: C_12  and  C_13
    8  A    between atoms: C_13  and  N_14
    9  A    between atoms: C_15  and  C_17
   10  A    between atoms: C_25  and  O_26
   11  A    between atoms: O_26  and  C_27
                            x       y       z     vdW  Elec       q    Type
                         _______ _______ _______ _____ _____    ______ ____

>  <TORSDO>
F 9

>  <SCORE>
-7.095

>  <RMSD_LB>
2.966

>  <RMSD_UB>
4.358

$$$$
CHEMBL1572869
 OpenBabel10172500203D

 29 30  0  0  0  0  0  0  0  0999 V2000
  146.6930  140.2870  149.4100 N   0  0  0  0  0  0  0  0  0  0  0  0
  146.5560  141.5870  148.9750 C   0  0  0  0  0  0  0  0  0  0  0  0
  146.5970  141.9070  147.7910 O   0  0  0  0  0  0  0  0  0  0  0  0
  146.7690  140.0990  150.3740 H   0  0  0  0  0  0  0  0  0  0  0  0
  146.7270  139.1980  148.4590 C   0  0  0  0  0  2  0  0  0  0  0  0
  143.4200  136.4210  148.8790 C   0  0  0  0  0  0  0  0  0  0  0  0
  144.5600  136.3190  149.6890 C   0  0  0  0  0  3  0  0  0  0  0  0
  145.6100  137.2350  149.5730 C   0  0  0  0  0  3  0  0  0  0  0  0
  145.5610  138.2610  148.6260 C   0  0  0  0  0  0  0  0  0  0  0  0
  144.4150  138.3740  147.8280 C   0  0  0  0  0  3  0  0  0  0  0  0
  143.3420  137.4750  147.9530 C   0  0  0  0  0  0  0  0  0  0  0  0
  142.7970  134.1260  148.7330 C   0  0  0  0  0  1  0  0  0  0  0  0
  142.4170  135.4880  148.8910 O   0  0  0  0  0  0  0  0  0  0  0  0
  142.3200  137.7260  147.0720 O   0  0  0  0  0  0  0  0  0  0  0  0
  141.0770  138.1260  147.6360 C   0  0  0  0  0  1  0  0  0  0  0  0
  146.3870  142.6020  150.0920 C   0  0  0  0  0  2  0  0  0  0  0  0
  147.2340  142.2720  151.3240 C   0  0  0  0  0  2  0  0  0  0  0  0
  146.3870  142.1570  152.5930 C   0  0  0  0  0  2  0  0  0  0  0  0
  145.1870  141.3700  152.3810 N   0  0  0  0  0  0  0  0  0  0  0  0
  145.2350  139.9960  152.3420 C   0  0  0  0  0  0  0  0  0  0  0  0
  146.2680  139.3550  152.5170 O   0  0  0  0  0  0  0  0  0  0  0  0
  144.3230  141.8280  152.2640 H   0  0  0  0  0  0  0  0  0  0  0  0
  143.9560  139.2720  152.0850 C   0  0  0  0  0  0  0  0  0  0  0  0
  143.5990  138.1020  152.7690 C   0  0  0  0  0  3  0  0  0  0  0  0
  142.3520  137.5100  152.5350 C   0  0  0  0  0  3  0  0  0  0  0  0
  141.4630  138.0870  151.6260 C   0  0  0  0  0  0  0  0  0  0  0  0
  139.9180  137.3770  151.3700 Cl  0  0  0  0  0  0  0  0  0  0  0  0
  141.8130  139.2470  150.9400 C   0  0  0  0  0  3  0  0  0  0  0  0
  143.0560  139.8400  151.1730 C   0  0  0  0  0  3  0  0  0  0  0  0
  1  4  1  0  0  0  0
  2  1  1  0  0  0  0
  2 16  1  0  0  0  0
  3  2  2  0  0  0  0
  5  9  1  0  0  0  0
  5  1  1  0  0  0  0
  6 13  1  0  0  0  0
  6  7  1  0  0  0  0
  8  7  2  0  0  0  0
  9  8  1  0  0  0  0
 10 11  1  0  0  0  0
 10  9  2  0  0  0  0
 11  6  2  0  0  0  0
 12 13  1  0  0  0  0
 14 15  1  0  0  0  0
 14 11  1  0  0  0  0
 16 17  1  0  0  0  0
 17 18  1  0  0  0  0
 19 18  1  0  0  0  0
 20 19  1  0  0  0  0
 20 21  2  0  0  0  0
 22 19  1  0  0  0  0
 23 20  1  0  0  0  0
 23 24  1  0  0  0  0
 25 24  2  0  0  0  0
 26 25  1  0  0  0  0
 27 26  1  0  0  0  0
 28 29  1  0  0  0  0
 28 26  2  0  0  0  0
 29 23  2  0  0  0  0
M  END
>  <MODEL>
3

>  <REMARK>
 VINA RESULT:    -6.894      2.270      4.354
 INTER + INTRA:         -11.527
 INTER:                  -8.987
 INTRA:                  -2.540
 UNBOUND:                -1.005
  Name = CHEMBL1572869
  11 active torsions:
  status: ('A' for Active; 'I' for Inactive)
    1  A    between atoms: C_1  and  O_2
    2  A    between atoms: O_2  and  C_3
    3  A    between atoms: C_6  and  C_7
    4  A    between atoms: C_7  and  N_8
    5  A    between atoms: C_9  and  C_11
    6  A    between atoms: C_11  and  C_12
    7  A    between atoms: C_12  and  C_13
    8  A    between atoms: C_13  and  N_14
    9  A    between atoms: C_15  and  C_17
   10  A    between atoms: C_25  and  O_26
   11  A    between atoms: O_26  and  C_27
                            x       y       z     vdW  Elec       q    Type
                         _______ _______ _______ _____ _____    ______ ____

>  <TORSDO>
F 9

>  <SCORE>
-6.894

>  <RMSD_LB>
2.270

>  <RMSD_UB>
4.354

$$$$
CHEMBL1572869
 OpenBabel10172500203D

 29 30  0  0  0  0  0  0  0  0999 V2000
  136.0880  132.8180  147.1910 N   0  0  0  0  0  0  0  0  0  0  0  0
  134.9260  132.8230  147.9300 C   0  0  0  0  0  0  0  0  0  0  0  0
  133.9670  132.0980  147.6790 O   0  0  0  0  0  0  0  0  0  0  0  0
  136.7800  133.4980  147.3620 H   0  0  0  0  0  0  0  0  0  0  0  0
  136.2980  131.8190  146.1660 C   0  0  0  0  0  2  0  0  0  0  0  0
  136.9330  133.6080  142.2640 C   0  0  0  0  0  0  0  0  0  0  0  0
  137.3310  132.2910  142.5310 C   0  0  0  0  0  3  0  0  0  0  0  0
  137.0960  131.7060  143.7800 C   0  0  0  0  0  3  0  0  0  0  0  0
  136.4820  132.4320  144.8030 C   0  0  0  0  0  0  0  0  0  0  0  0
  136.0690  133.7440  144.5330 C   0  0  0  0  0  3  0  0  0  0  0  0
  136.2760  134.3320  143.2740 C   0  0  0  0  0  0  0  0  0  0  0  0
  138.5730  134.7020  140.9260 C   0  0  0  0  0  1  0  0  0  0  0  0
  137.2350  134.2500  141.0920 O   0  0  0  0  0  0  0  0  0  0  0  0
  135.8310  135.6290  143.2030 O   0  0  0  0  0  0  0  0  0  0  0  0
  136.6660  136.6210  143.7870 C   0  0  0  0  0  1  0  0  0  0  0  0
  134.9140  133.8330  149.0640 C   0  0  0  0  0  2  0  0  0  0  0  0
  134.1180  133.3480  150.2790 C   0  0  0  0  0  2  0  0  0  0  0  0
  133.5810  134.5090  151.1170 C   0  0  0  0  0  2  0  0  0  0  0  0
  134.6150  135.1210  151.9330 N   0  0  0  0  0  0  0  0  0  0  0  0
  134.6690  134.9090  153.2900 C   0  0  0  0  0  0  0  0  0  0  0  0
  133.8870  134.1730  153.8860 O   0  0  0  0  0  0  0  0  0  0  0  0
  135.2890  135.6980  151.5050 H   0  0  0  0  0  0  0  0  0  0  0  0
  135.7460  135.6060  154.0510 C   0  0  0  0  0  0  0  0  0  0  0  0
  136.6270  136.5160  153.4520 C   0  0  0  0  0  3  0  0  0  0  0  0
  137.5700  137.1930  154.2360 C   0  0  0  0  0  3  0  0  0  0  0  0
  137.6280  136.9670  155.6120 C   0  0  0  0  0  0  0  0  0  0  0  0
  138.7620  137.8280  156.5760 Cl  0  0  0  0  0  0  0  0  0  0  0  0
  136.7580  136.0610  156.2130 C   0  0  0  0  0  3  0  0  0  0  0  0
  135.8160  135.3860  155.4330 C   0  0  0  0  0  3  0  0  0  0  0  0
  1  4  1  0  0  0  0
  1  2  1  0  0  0  0
  2 16  1  0  0  0  0
  3  2  2  0  0  0  0
  5  1  1  0  0  0  0
  6  7  2  0  0  0  0
  6 11  1  0  0  0  0
  7  8  1  0  0  0  0
  8  9  2  0  0  0  0
  9  5  1  0  0  0  0
 10  9  1  0  0  0  0
 11 10  2  0  0  0  0
 12 13  1  0  0  0  0
 13  6  1  0  0  0  0
 14 11  1  0  0  0  0
 14 15  1  0  0  0  0
 16 17  1  0  0  0  0
 17 18  1  0  0  0  0
 18 19  1  0  0  0  0
 19 20  1  0  0  0  0
 20 21  2  0  0  0  0
 20 23  1  0  0  0  0
 22 19  1  0  0  0  0
 23 29  1  0  0  0  0
 24 23  2  0  0  0  0
 24 25  1  0  0  0  0
 25 26  2  0  0  0  0
 26 28  1  0  0  0  0
 26 27  1  0  0  0  0
 29 28  2  0  0  0  0
M  END
>  <MODEL>
4

>  <REMARK>
 VINA RESULT:    -6.691     10.477     13.236
 INTER + INTRA:         -11.217
 INTER:                 -10.490
 INTRA:                  -0.727
 UNBOUND:                -1.005
  Name = CHEMBL1572869
  11 active torsions:
  status: ('A' for Active; 'I' for Inactive)
    1  A    between atoms: C_1  and  O_2
    2  A    between atoms: O_2  and  C_3
    3  A    between atoms: C_6  and  C_7
    4  A    between atoms: C_7  and  N_8
    5  A    between atoms: C_9  and  C_11
    6  A    between atoms: C_11  and  C_12
    7  A    between atoms: C_12  and  C_13
    8  A    between atoms: C_13  and  N_14
    9  A    between atoms: C_15  and  C_17
   10  A    between atoms: C_25  and  O_26
   11  A    between atoms: O_26  and  C_27
                            x       y       z     vdW  Elec       q    Type
                         _______ _______ _______ _____ _____    ______ ____

>  <TORSDO>
F 9

>  <SCORE>
-6.691

>  <RMSD_LB>
10.477

>  <RMSD_UB>
13.236

$$$$
CHEMBL1572869
 OpenBabel10172500203D

 29 30  0  0  0  0  0  0  0  0999 V2000
  141.2540  137.1160  149.2440 N   0  0  0  0  0  0  0  0  0  0  0  0
  140.6120  136.1250  148.5340 C   0  0  0  0  0  0  0  0  0  0  0  0
  140.8920  134.9340  148.6400 O   0  0  0  0  0  0  0  0  0  0  0  0
  141.0710  138.0620  149.0380 H   0  0  0  0  0  0  0  0  0  0  0  0
  142.1940  136.7750  150.2890 C   0  0  0  0  0  2  0  0  0  0  0  0
  141.0280  138.3070  154.1770 C   0  0  0  0  0  0  0  0  0  0  0  0
  142.3560  137.9520  153.9060 C   0  0  0  0  0  3  0  0  0  0  0  0
  142.7350  137.4880  152.6420 C   0  0  0  0  0  3  0  0  0  0  0  0
  141.7910  137.3420  151.6230 C   0  0  0  0  0  0  0  0  0  0  0  0
  140.4650  137.7130  151.8870 C   0  0  0  0  0  3  0  0  0  0  0  0
  140.0780  138.2050  153.1460 C   0  0  0  0  0  0  0  0  0  0  0  0
  140.4480  137.6280  156.3860 C   0  0  0  0  0  1  0  0  0  0  0  0
  140.5970  138.6670  155.4260 O   0  0  0  0  0  0  0  0  0  0  0  0
  138.7380  138.4900  153.2260 O   0  0  0  0  0  0  0  0  0  0  0  0
  137.8880  137.4370  153.6660 C   0  0  0  0  0  1  0  0  0  0  0  0
  139.5480  136.6340  147.5770 C   0  0  0  0  0  2  0  0  0  0  0  0
  139.6330  138.1450  147.3490 C   0  0  0  0  0  2  0  0  0  0  0  0
  138.3310  138.8580  147.7160 C   0  0  0  0  0  2  0  0  0  0  0  0
  137.2300  137.9300  147.8990 N   0  0  0  0  0  0  0  0  0  0  0  0
  136.8410  137.5260  149.1540 C   0  0  0  0  0  0  0  0  0  0  0  0
  137.3620  137.9440  150.1850 O   0  0  0  0  0  0  0  0  0  0  0  0
  136.7540  137.5830  147.1090 H   0  0  0  0  0  0  0  0  0  0  0  0
  135.7230  136.5440  149.2430 C   0  0  0  0  0  0  0  0  0  0  0  0
  134.4520  136.7930  148.7050 C   0  0  0  0  0  3  0  0  0  0  0  0
  133.4660  135.8000  148.7570 C   0  0  0  0  0  3  0  0  0  0  0  0
  133.7490  134.5620  149.3370 C   0  0  0  0  0  0  0  0  0  0  0  0
  132.5460  133.3340  149.3650 Cl  0  0  0  0  0  0  0  0  0  0  0  0
  135.0070  134.3090  149.8760 C   0  0  0  0  0  3  0  0  0  0  0  0
  135.9930  135.2970  149.8250 C   0  0  0  0  0  3  0  0  0  0  0  0
  1  5  1  0  0  0  0
  2  3  2  0  0  0  0
  2  1  1  0  0  0  0
  4  1  1  0  0  0  0
  5  9  1  0  0  0  0
  6 13  1  0  0  0  0
  7  6  1  0  0  0  0
  8  7  2  0  0  0  0
  9 10  2  0  0  0  0
  9  8  1  0  0  0  0
 10 11  1  0  0  0  0
 11 14  1  0  0  0  0
 11  6  2  0  0  0  0
 13 12  1  0  0  0  0
 14 15  1  0  0  0  0
 16  2  1  0  0  0  0
 17 16  1  0  0  0  0
 17 18  1  0  0  0  0
 18 19  1  0  0  0  0
 19 20  1  0  0  0  0
 20 23  1  0  0  0  0
 20 21  2  0  0  0  0
 22 19  1  0  0  0  0
 23 29  1  0  0  0  0
 24 25  1  0  0  0  0
 24 23  2  0  0  0  0
 25 26  2  0  0  0  0
 26 27  1  0  0  0  0
 26 28  1  0  0  0  0
 29 28  2  0  0  0  0
M  END
>  <MODEL>
5

>  <REMARK>
 VINA RESULT:    -6.361      6.510      9.302
 INTER + INTRA:         -10.713
 INTER:                  -9.553
 INTRA:                  -1.160
 UNBOUND:                -1.005
  Name = CHEMBL1572869
  11 active torsions:
  status: ('A' for Active; 'I' for Inactive)
    1  A    between atoms: C_1  and  O_2
    2  A    between atoms: O_2  and  C_3
    3  A    between atoms: C_6  and  C_7
    4  A    between atoms: C_7  and  N_8
    5  A    between atoms: C_9  and  C_11
    6  A    between atoms: C_11  and  C_12
    7  A    between atoms: C_12  and  C_13
    8  A    between atoms: C_13  and  N_14
    9  A    between atoms: C_15  and  C_17
   10  A    between atoms: C_25  and  O_26
   11  A    between atoms: O_26  and  C_27
                            x       y       z     vdW  Elec       q    Type
                         _______ _______ _______ _____ _____    ______ ____

>  <TORSDO>
F 9

>  <SCORE>
-6.361

>  <RMSD_LB>
6.510

>  <RMSD_UB>
9.302

$$$$
CHEMBL1572869
 OpenBabel10172500203D

 29 30  0  0  0  0  0  0  0  0999 V2000
  139.6250  135.4540  148.5470 N   0  0  0  0  0  0  0  0  0  0  0  0
  138.9050  135.1550  147.4110 C   0  0  0  0  0  0  0  0  0  0  0  0
  139.2370  135.5230  146.2880 O   0  0  0  0  0  0  0  0  0  0  0  0
  139.2560  135.2340  149.4330 H   0  0  0  0  0  0  0  0  0  0  0  0
  140.9210  136.0880  148.4440 C   0  0  0  0  0  2  0  0  0  0  0  0
  142.3150  137.5240  152.2940 C   0  0  0  0  0  0  0  0  0  0  0  0
  143.2170  137.1220  151.3000 C   0  0  0  0  0  3  0  0  0  0  0  0
  142.7660  136.6890  150.0490 C   0  0  0  0  0  3  0  0  0  0  0  0
  141.4000  136.6220  149.7670 C   0  0  0  0  0  0  0  0  0  0  0  0
  140.4960  137.0400  150.7540 C   0  0  0  0  0  3  0  0  0  0  0  0
  140.9390  137.5010  152.0050 C   0  0  0  0  0  0  0  0  0  0  0  0
  143.4140  139.0810  153.7230 C   0  0  0  0  0  1  0  0  0  0  0  0
  142.7090  137.8560  153.5620 O   0  0  0  0  0  0  0  0  0  0  0  0
  139.9130  137.8410  152.8510 O   0  0  0  0  0  0  0  0  0  0  0  0
  139.4040  139.1640  152.7330 C   0  0  0  0  0  1  0  0  0  0  0  0
  137.6370  134.3590  147.6700 C   0  0  0  0  0  2  0  0  0  0  0  0
  137.6210  133.0170  146.9340 C   0  0  0  0  0  2  0  0  0  0  0  0
  136.9180  133.1110  145.5790 C   0  0  0  0  0  2  0  0  0  0  0  0
  136.2590  134.3900  145.3900 N   0  0  0  0  0  0  0  0  0  0  0  0
  134.8880  134.4930  145.4000 C   0  0  0  0  0  0  0  0  0  0  0  0
  134.1450  133.5360  145.6040 O   0  0  0  0  0  0  0  0  0  0  0  0
  136.8040  135.1990  145.2520 H   0  0  0  0  0  0  0  0  0  0  0  0
  134.2990  135.8420  145.1640 C   0  0  0  0  0  0  0  0  0  0  0  0
  133.4430  136.4650  146.0830 C   0  0  0  0  0  3  0  0  0  0  0  0
  132.9810  137.7640  145.8360 C   0  0  0  0  0  3  0  0  0  0  0  0
  133.3770  138.4400  144.6800 C   0  0  0  0  0  0  0  0  0  0  0  0
  132.8370  140.0480  144.4000 Cl  0  0  0  0  0  0  0  0  0  0  0  0
  134.2240  137.8250  143.7620 C   0  0  0  0  0  3  0  0  0  0  0  0
  134.6870  136.5310  144.0070 C   0  0  0  0  0  3  0  0  0  0  0  0
  1  4  1  0  0  0  0
  2 16  1  0  0  0  0
  2  1  1  0  0  0  0
  3  2  2  0  0  0  0
  5  1  1  0  0  0  0
  5  9  1  0  0  0  0
  6 13  1  0  0  0  0
  7  6  2  0  0  0  0
  8  7  1  0  0  0  0
  9  8  2  0  0  0  0
  9 10  1  0  0  0  0
 10 11  2  0  0  0  0
 11  6  1  0  0  0  0
 11 14  1  0  0  0  0
 13 12  1  0  0  0  0
 15 14  1  0  0  0  0
 17 16  1  0  0  0  0
 18 17  1  0  0  0  0
 19 20  1  0  0  0  0
 19 18  1  0  0  0  0
 20 21  2  0  0  0  0
 22 19  1  0  0  0  0
 23 20  1  0  0  0  0
 23 24  1  0  0  0  0
 25 24  2  0  0  0  0
 26 25  1  0  0  0  0
 27 26  1  0  0  0  0
 28 29  1  0  0  0  0
 28 26  2  0  0  0  0
 29 23  2  0  0  0  0
M  END
>  <MODEL>
6

>  <REMARK>
 VINA RESULT:    -6.144      7.680     10.846
 INTER + INTRA:         -10.382
 INTER:                  -9.550
 INTRA:                  -0.832
 UNBOUND:                -1.005
  Name = CHEMBL1572869
  11 active torsions:
  status: ('A' for Active; 'I' for Inactive)
    1  A    between atoms: C_1  and  O_2
    2  A    between atoms: O_2  and  C_3
    3  A    between atoms: C_6  and  C_7
    4  A    between atoms: C_7  and  N_8
    5  A    between atoms: C_9  and  C_11
    6  A    between atoms: C_11  and  C_12
    7  A    between atoms: C_12  and  C_13
    8  A    between atoms: C_13  and  N_14
    9  A    between atoms: C_15  and  C_17
   10  A    between atoms: C_25  and  O_26
   11  A    between atoms: O_26  and  C_27
                            x       y       z     vdW  Elec       q    Type
                         _______ _______ _______ _____ _____    ______ ____

>  <TORSDO>
F 9

>  <SCORE>
-6.144

>  <RMSD_LB>
7.680

>  <RMSD_UB>
10.846

$$$$
CHEMBL1572869
 OpenBabel10172500203D

 29 30  0  0  0  0  0  0  0  0999 V2000
  143.7000  137.8670  150.8440 N   0  0  0  0  0  0  0  0  0  0  0  0
  142.4900  138.4680  151.1160 C   0  0  0  0  0  0  0  0  0  0  0  0
  142.2850  139.6670  150.9530 O   0  0  0  0  0  0  0  0  0  0  0  0
  143.8480  136.9270  151.1010 H   0  0  0  0  0  0  0  0  0  0  0  0
  144.7520  138.6070  150.1850 C   0  0  0  0  0  2  0  0  0  0  0  0
  147.7460  140.0980  152.9490 C   0  0  0  0  0  0  0  0  0  0  0  0
  147.6660  140.5830  151.6360 C   0  0  0  0  0  3  0  0  0  0  0  0
  146.6800  140.1230  150.7570 C   0  0  0  0  0  3  0  0  0  0  0  0
  145.7640  139.1480  151.1590 C   0  0  0  0  0  0  0  0  0  0  0  0
  145.8330  138.6740  152.4760 C   0  0  0  0  0  3  0  0  0  0  0  0
  146.8030  139.1480  153.3760 C   0  0  0  0  0  0  0  0  0  0  0  0
  148.8430  141.8140  154.1850 C   0  0  0  0  0  1  0  0  0  0  0  0
  148.7560  140.4450  153.8060 O   0  0  0  0  0  0  0  0  0  0  0  0
  146.7330  138.5510  154.6100 O   0  0  0  0  0  0  0  0  0  0  0  0
  147.5430  137.3980  154.8060 C   0  0  0  0  0  1  0  0  0  0  0  0
  141.4380  137.5250  151.6730 C   0  0  0  0  0  2  0  0  0  0  0  0
  140.8680  138.0010  153.0120 C   0  0  0  0  0  2  0  0  0  0  0  0
  139.3420  138.1080  152.9840 C   0  0  0  0  0  2  0  0  0  0  0  0
  138.8460  138.5350  151.6890 N   0  0  0  0  0  0  0  0  0  0  0  0
  137.9400  137.7750  150.9880 C   0  0  0  0  0  0  0  0  0  0  0  0
  137.4690  136.7250  151.4190 O   0  0  0  0  0  0  0  0  0  0  0  0
  139.1650  139.3840  151.3050 H   0  0  0  0  0  0  0  0  0  0  0  0
  137.5130  138.2760  149.6500 C   0  0  0  0  0  0  0  0  0  0  0  0
  137.7300  139.5970  149.2330 C   0  0  0  0  0  3  0  0  0  0  0  0
  137.3710  139.9870  147.9360 C   0  0  0  0  0  3  0  0  0  0  0  0
  136.8040  139.0610  147.0590 C   0  0  0  0  0  0  0  0  0  0  0  0
  136.4000  139.5350  145.4570 Cl  0  0  0  0  0  0  0  0  0  0  0  0
  136.5830  137.7480  147.4680 C   0  0  0  0  0  3  0  0  0  0  0  0
  136.9410  137.3570  148.7600 C   0  0  0  0  0  3  0  0  0  0  0  0
  1  4  1  0  0  0  0
  1  2  1  0  0  0  0
  2 16  1  0  0  0  0
  3  2  2  0  0  0  0
  5  1  1  0  0  0  0
  5  9  1  0  0  0  0
  6 11  1  0  0  0  0
  6 13  1  0  0  0  0
  7  6  2  0  0  0  0
  8  9  2  0  0  0  0
  8  7  1  0  0  0  0
  9 10  1  0  0  0  0
 10 11  2  0  0  0  0
 11 14  1  0  0  0  0
 13 12  1  0  0  0  0
 14 15  1  0  0  0  0
 16 17  1  0  0  0  0
 18 17  1  0  0  0  0
 19 18  1  0  0  0  0
 20 21  2  0  0  0  0
 20 19  1  0  0  0  0
 22 19  1  0  0  0  0
 23 20  1  0  0  0  0
 24 23  1  0  0  0  0
 25 24  2  0  0  0  0
 26 28  2  0  0  0  0
 26 25  1  0  0  0  0
 27 26  1  0  0  0  0
 28 29  1  0  0  0  0
 29 23  2  0  0  0  0
M  END
>  <MODEL>
7

>  <REMARK>
 VINA RESULT:    -6.089      4.499      7.066
 INTER + INTRA:         -10.298
 INTER:                  -9.456
 INTRA:                  -0.842
 UNBOUND:                -1.005
  Name = CHEMBL1572869
  11 active torsions:
  status: ('A' for Active; 'I' for Inactive)
    1  A    between atoms: C_1  and  O_2
    2  A    between atoms: O_2  and  C_3
    3  A    between atoms: C_6  and  C_7
    4  A    between atoms: C_7  and  N_8
    5  A    between atoms: C_9  and  C_11
    6  A    between atoms: C_11  and  C_12
    7  A    between atoms: C_12  and  C_13
    8  A    between atoms: C_13  and  N_14
    9  A    between atoms: C_15  and  C_17
   10  A    between atoms: C_25  and  O_26
   11  A    between atoms: O_26  and  C_27
                            x       y       z     vdW  Elec       q    Type
                         _______ _______ _______ _____ _____    ______ ____

>  <TORSDO>
F 9

>  <SCORE>
-6.089

>  <RMSD_LB>
4.499

>  <RMSD_UB>
7.066

$$$$
CHEMBL1572869
 OpenBabel10172500203D

 29 30  0  0  0  0  0  0  0  0999 V2000
  136.4350  135.6210  148.0970 N   0  0  0  0  0  0  0  0  0  0  0  0
  137.5060  134.7780  147.8980 C   0  0  0  0  0  0  0  0  0  0  0  0
  137.4000  133.6630  147.3960 O   0  0  0  0  0  0  0  0  0  0  0  0
  136.5560  136.4540  148.6070 H   0  0  0  0  0  0  0  0  0  0  0  0
  135.1330  135.2880  147.5610 C   0  0  0  0  0  2  0  0  0  0  0  0
  133.3770  138.5230  145.2650 C   0  0  0  0  0  0  0  0  0  0  0  0
  132.5920  137.4660  145.7470 C   0  0  0  0  0  3  0  0  0  0  0  0
  133.1550  136.4410  146.5130 C   0  0  0  0  0  3  0  0  0  0  0  0
  134.5230  136.4320  146.7960 C   0  0  0  0  0  0  0  0  0  0  0  0
  135.3060  137.4960  146.3300 C   0  0  0  0  0  3  0  0  0  0  0  0
  134.7460  138.5450  145.5810 C   0  0  0  0  0  0  0  0  0  0  0  0
  132.5270  139.0870  143.1120 C   0  0  0  0  0  1  0  0  0  0  0  0
  132.8860  139.4900  144.4280 O   0  0  0  0  0  0  0  0  0  0  0  0
  135.6690  139.4830  145.1890 O   0  0  0  0  0  0  0  0  0  0  0  0
  136.9550  139.4000  145.7900 C   0  0  0  0  0  1  0  0  0  0  0  0
  138.8330  135.3320  148.3890 C   0  0  0  0  0  2  0  0  0  0  0  0
  139.2000  136.6610  147.7250 C   0  0  0  0  0  2  0  0  0  0  0  0
  139.2470  137.8140  148.7290 C   0  0  0  0  0  2  0  0  0  0  0  0
  140.4130  137.7450  149.5900 N   0  0  0  0  0  0  0  0  0  0  0  0
  140.2860  137.5690  150.9480 C   0  0  0  0  0  0  0  0  0  0  0  0
  139.2020  137.4240  151.5070 O   0  0  0  0  0  0  0  0  0  0  0  0
  141.3110  137.8250  149.1940 H   0  0  0  0  0  0  0  0  0  0  0  0
  141.5380  137.5440  151.7570 C   0  0  0  0  0  0  0  0  0  0  0  0
  141.5580  137.8300  153.1290 C   0  0  0  0  0  3  0  0  0  0  0  0
  142.7560  137.7170  153.8470 C   0  0  0  0  0  3  0  0  0  0  0  0
  143.9250  137.3170  153.2000 C   0  0  0  0  0  0  0  0  0  0  0  0
  145.3840  137.1460  154.0940 Cl  0  0  0  0  0  0  0  0  0  0  0  0
  143.9130  137.0360  151.8360 C   0  0  0  0  0  3  0  0  0  0  0  0
  142.7210  137.1460  151.1180 C   0  0  0  0  0  3  0  0  0  0  0  0
  1  4  1  0  0  0  0
  2  1  1  0  0  0  0
  2 16  1  0  0  0  0
  3  2  2  0  0  0  0
  5  1  1  0  0  0  0
  6 11  2  0  0  0  0
  6  7  1  0  0  0  0
  7  8  2  0  0  0  0
  8  9  1  0  0  0  0
  9  5  1  0  0  0  0
 10  9  2  0  0  0  0
 11 10  1  0  0  0  0
 12 13  1  0  0  0  0
 13  6  1  0  0  0  0
 14 11  1  0  0  0  0
 14 15  1  0  0  0  0
 17 16  1  0  0  0  0
 17 18  1  0  0  0  0
 18 19  1  0  0  0  0
 19 20  1  0  0  0  0
 20 21  2  0  0  0  0
 20 23  1  0  0  0  0
 22 19  1  0  0  0  0
 23 24  1  0  0  0  0
 24 25  2  0  0  0  0
 26 25  1  0  0  0  0
 26 27  1  0  0  0  0
 28 26  2  0  0  0  0
 29 23  2  0  0  0  0
 29 28  1  0  0  0  0
M  END
>  <MODEL>
8

>  <REMARK>
 VINA RESULT:    -5.922      7.762     10.729
 INTER + INTRA:         -10.043
 INTER:                  -9.037
 INTRA:                  -1.005
 UNBOUND:                -1.005
  Name = CHEMBL1572869
  11 active torsions:
  status: ('A' for Active; 'I' for Inactive)
    1  A    between atoms: C_1  and  O_2
    2  A    between atoms: O_2  and  C_3
    3  A    between atoms: C_6  and  C_7
    4  A    between atoms: C_7  and  N_8
    5  A    between atoms: C_9  and  C_11
    6  A    between atoms: C_11  and  C_12
    7  A    between atoms: C_12  and  C_13
    8  A    between atoms: C_13  and  N_14
    9  A    between atoms: C_15  and  C_17
   10  A    between atoms: C_25  and  O_26
   11  A    between atoms: O_26  and  C_27
                            x       y       z     vdW  Elec       q    Type
                         _______ _______ _______ _____ _____    ______ ____

>  <TORSDO>
F 9

>  <SCORE>
-5.922

>  <RMSD_LB>
7.762

>  <RMSD_UB>
10.729

$$$$
CHEMBL1572869
 OpenBabel10172500203D

 29 30  0  0  0  0  0  0  0  0999 V2000
  144.5500  137.8650  149.9570 N   0  0  0  0  0  0  0  0  0  0  0  0
  145.6910  137.5030  150.6400 C   0  0  0  0  0  0  0  0  0  0  0  0
  145.9640  136.3410  150.9220 O   0  0  0  0  0  0  0  0  0  0  0  0
  144.3210  138.8180  149.8580 H   0  0  0  0  0  0  0  0  0  0  0  0
  143.6880  136.8540  149.3860 C   0  0  0  0  0  2  0  0  0  0  0  0
  139.5930  138.2560  149.0920 C   0  0  0  0  0  0  0  0  0  0  0  0
  140.6720  139.1470  149.0100 C   0  0  0  0  0  3  0  0  0  0  0  0
  141.9920  138.6880  149.0740 C   0  0  0  0  0  3  0  0  0  0  0  0
  142.2670  137.3300  149.2470 C   0  0  0  0  0  0  0  0  0  0  0  0
  141.1900  136.4360  149.3120 C   0  0  0  0  0  3  0  0  0  0  0  0
  139.8600  136.8830  149.2230 C   0  0  0  0  0  0  0  0  0  0  0  0
  138.0600  140.0640  149.3330 C   0  0  0  0  0  1  0  0  0  0  0  0
  138.2890  138.6740  149.1370 O   0  0  0  0  0  0  0  0  0  0  0  0
  138.9400  135.8700  149.3330 O   0  0  0  0  0  0  0  0  0  0  0  0
  138.6210  135.1680  148.1370 C   0  0  0  0  0  1  0  0  0  0  0  0
  146.5680  138.6730  151.0500 C   0  0  0  0  0  2  0  0  0  0  0  0
  146.3470  139.0970  152.5040 C   0  0  0  0  0  2  0  0  0  0  0  0
  145.3460  140.2480  152.6240 C   0  0  0  0  0  2  0  0  0  0  0  0
  143.9790  139.7750  152.7390 N   0  0  0  0  0  0  0  0  0  0  0  0
  143.4840  139.3130  153.9350 C   0  0  0  0  0  0  0  0  0  0  0  0
  144.1400  139.3040  154.9740 O   0  0  0  0  0  0  0  0  0  0  0  0
  143.3950  139.7860  151.9450 H   0  0  0  0  0  0  0  0  0  0  0  0
  142.0780  138.8150  153.9500 C   0  0  0  0  0  0  0  0  0  0  0  0
  141.2390  138.9520  155.0650 C   0  0  0  0  0  3  0  0  0  0  0  0
  139.9060  138.5300  154.9900 C   0  0  0  0  0  3  0  0  0  0  0  0
  139.4120  137.9790  153.8070 C   0  0  0  0  0  0  0  0  0  0  0  0
  137.7650  137.4950  153.7090 Cl  0  0  0  0  0  0  0  0  0  0  0  0
  140.2410  137.8360  152.6980 C   0  0  0  0  0  3  0  0  0  0  0  0
  141.5700  138.2580  152.7690 C   0  0  0  0  0  3  0  0  0  0  0  0
  1  2  1  0  0  0  0
  2  3  2  0  0  0  0
  2 16  1  0  0  0  0
  4  1  1  0  0  0  0
  5  1  1  0  0  0  0
  6 13  1  0  0  0  0
  6 11  1  0  0  0  0
  7  8  1  0  0  0  0
  7  6  2  0  0  0  0
  8  9  2  0  0  0  0
  9 10  1  0  0  0  0
  9  5  1  0  0  0  0
 11 10  2  0  0  0  0
 11 14  1  0  0  0  0
 13 12  1  0  0  0  0
 15 14  1  0  0  0  0
 16 17  1  0  0  0  0
 17 18  1  0  0  0  0
 18 19  1  0  0  0  0
 19 20  1  0  0  0  0
 20 23  1  0  0  0  0
 20 21  2  0  0  0  0
 22 19  1  0  0  0  0
 23 24  1  0  0  0  0
 25 24  2  0  0  0  0
 26 25  1  0  0  0  0
 27 26  1  0  0  0  0
 28 29  1  0  0  0  0
 28 26  2  0  0  0  0
 29 23  2  0  0  0  0
M  END
>  <MODEL>
9

>  <REMARK>
 VINA RESULT:    -5.904      3.717      5.961
 INTER + INTRA:         -10.016
 INTER:                  -8.316
 INTRA:                  -1.700
 UNBOUND:                -1.005
  Name = CHEMBL1572869
  11 active torsions:
  status: ('A' for Active; 'I' for Inactive)
    1  A    between atoms: C_1  and  O_2
    2  A    between atoms: O_2  and  C_3
    3  A    between atoms: C_6  and  C_7
    4  A    between atoms: C_7  and  N_8
    5  A    between atoms: C_9  and  C_11
    6  A    between atoms: C_11  and  C_12
    7  A    between atoms: C_12  and  C_13
    8  A    between atoms: C_13  and  N_14
    9  A    between atoms: C_15  and  C_17
   10  A    between atoms: C_25  and  O_26
   11  A    between atoms: O_26  and  C_27
                            x       y       z     vdW  Elec       q    Type
                         _______ _______ _______ _____ _____    ______ ____

>  <TORSDO>
F 9

>  <SCORE>
-5.904

>  <RMSD_LB>
3.717

>  <RMSD_UB>
5.961

$$$$
