CHEMBL79105
 OpenBabel10172500523D

 26 27  0  0  0  0  0  0  0  0999 V2000
  147.2350  140.3010  154.8730 N   0  0  0  0  0  0  0  0  0  0  0  0
  148.4400  140.3310  154.2070 C   0  0  0  0  0  0  0  0  0  0  0  0
  149.0870  139.3270  153.9340 O   0  0  0  0  0  0  0  0  0  0  0  0
  146.7750  141.1510  155.0590 H   0  0  0  0  0  0  0  0  0  0  0  0
  146.6170  139.0670  155.3120 C   0  0  0  0  0  2  0  0  0  0  0  0
  144.8660  137.3270  152.3790 C   0  0  0  0  0  0  0  0  0  0  0  0
  145.8490  137.7220  153.2970 C   0  0  0  0  0  3  0  0  0  0  0  0
  145.5430  138.5980  154.3570 C   0  0  0  0  0  0  0  0  0  0  0  0
  144.2330  139.0800  154.4800 C   0  0  0  0  0  3  0  0  0  0  0  0
  143.2440  138.6920  153.5740 C   0  0  0  0  0  3  0  0  0  0  0  0
  143.5640  137.8240  152.5320 C   0  0  0  0  0  0  0  0  0  0  0  0
  146.3450  135.8800  151.1870 C   0  0  0  0  0  1  0  0  0  0  0  0
  145.0680  136.4870  151.3160 O   0  0  0  0  0  0  0  0  0  0  0  0
  142.5940  137.4490  151.6390 O   0  0  0  0  0  0  0  0  0  0  0  0
  142.8040  136.8650  150.9370 H   0  0  0  0  0  0  0  0  0  0  0  0
  148.9230  141.7350  153.8820 C   0  0  0  0  0  2  0  0  0  0  0  0
  148.8830  141.9970  152.3760 C   0  0  0  0  0  2  0  0  0  0  0  0
  147.5780  141.5690  151.7420 C   0  0  0  0  0  0  0  0  0  0  0  0
  146.3980  142.2900  151.9760 C   0  0  0  0  0  3  0  0  0  0  0  0
  145.1970  141.9110  151.3650 C   0  0  0  0  0  3  0  0  0  0  0  0
  145.1760  140.7970  150.5160 C   0  0  0  0  0  0  0  0  0  0  0  0
  146.3430  140.0600  150.2840 C   0  0  0  0  0  3  0  0  0  0  0  0
  147.5380  140.4470  150.9000 C   0  0  0  0  0  3  0  0  0  0  0  0
  143.9240  140.4030  149.8610 N   0  0  0  0  0  0  0  0  0  0  0  0
  142.8920  140.3820  150.5490 O   0  0  0  0  0  0  0  0  0  0  0  0
  143.9680  140.1110  148.6560 O   0  0  0  0  0  0  0  0  0  0  0  0
  1  4  1  0  0  0  0
  1  5  1  0  0  0  0
  2  1  1  0  0  0  0
  3  2  2  0  0  0  0
  6 11  2  0  0  0  0
  6  7  1  0  0  0  0
  7  8  2  0  0  0  0
  8  9  1  0  0  0  0
  8  5  1  0  0  0  0
 10  9  2  0  0  0  0
 11 10  1  0  0  0  0
 12 13  1  0  0  0  0
 13  6  1  0  0  0  0
 14 11  1  0  0  0  0
 15 14  1  0  0  0  0
 16  2  1  0  0  0  0
 17 16  1  0  0  0  0
 18 19  1  0  0  0  0
 18 17  1  0  0  0  0
 20 19  2  0  0  0  0
 21 20  1  0  0  0  0
 22 21  2  0  0  0  0
 22 23  1  0  0  0  0
 23 18  2  0  0  0  0
 24 21  1  0  0  0  0
 24 25  2  0  0  0  0
 26 24  2  0  0  0  0
M  END
>  <MODEL>
1

>  <REMARK>
 VINA RESULT:    -7.760      0.000      0.000
 INTER + INTRA:         -11.757
 INTER:                  -9.945
 INTRA:                  -1.813
 UNBOUND:                -0.595
  Name = CHEMBL79105
  9 active torsions:
  status: ('A' for Active; 'I' for Inactive)
    1  A    between atoms: C_1  and  O_2
    2  A    between atoms: O_2  and  C_3
    3  A    between atoms: C_5  and  C_6
    4  A    between atoms: C_6  and  N_7
    5  A    between atoms: C_8  and  C_10
    6  A    between atoms: C_10  and  C_11
    7  A    between atoms: C_11  and  C_12
    8  A    between atoms: C_15  and  N_16
    9  A    between atoms: C_23  and  O_24
                            x       y       z     vdW  Elec       q    Type
                         _______ _______ _______ _____ _____    ______ ____

>  <TORSDO>
F 8

>  <SCORE>
-7.760

>  <RMSD_LB>
0.000

>  <RMSD_UB>
0.000

$$$$
CHEMBL79105
 OpenBabel10172500523D

 26 27  0  0  0  0  0  0  0  0999 V2000
  138.6880  137.7570  155.3410 N   0  0  0  0  0  0  0  0  0  0  0  0
  137.4160  138.1430  155.7020 C   0  0  0  0  0  0  0  0  0  0  0  0
  136.9690  139.2660  155.5030 O   0  0  0  0  0  0  0  0  0  0  0  0
  138.9770  136.8360  155.5350 H   0  0  0  0  0  0  0  0  0  0  0  0
  139.6190  138.6530  154.6860 C   0  0  0  0  0  2  0  0  0  0  0  0
  139.3470  137.4130  151.0690 C   0  0  0  0  0  0  0  0  0  0  0  0
  139.0050  137.9090  152.3350 C   0  0  0  0  0  3  0  0  0  0  0  0
  139.9940  138.1710  153.3030 C   0  0  0  0  0  0  0  0  0  0  0  0
  141.3360  137.9220  152.9850 C   0  0  0  0  0  3  0  0  0  0  0  0
  141.6890  137.4300  151.7270 C   0  0  0  0  0  3  0  0  0  0  0  0
  140.6990  137.1770  150.7800 C   0  0  0  0  0  0  0  0  0  0  0  0
  137.5310  138.1290  149.6930 C   0  0  0  0  0  1  0  0  0  0  0  0
  138.4580  137.1220  150.0670 O   0  0  0  0  0  0  0  0  0  0  0  0
  141.0460  136.6880  149.5480 O   0  0  0  0  0  0  0  0  0  0  0  0
  141.3140  135.7950  149.4570 H   0  0  0  0  0  0  0  0  0  0  0  0
  136.6290  137.0560  156.4160 C   0  0  0  0  0  2  0  0  0  0  0  0
  136.7360  135.7220  155.6780 C   0  0  0  0  0  2  0  0  0  0  0  0
  135.7840  135.6240  154.5060 C   0  0  0  0  0  0  0  0  0  0  0  0
  136.2260  135.8890  153.2010 C   0  0  0  0  0  3  0  0  0  0  0  0
  135.3530  135.7680  152.1140 C   0  0  0  0  0  3  0  0  0  0  0  0
  134.0240  135.3830  152.3350 C   0  0  0  0  0  0  0  0  0  0  0  0
  133.5660  135.1290  153.6330 C   0  0  0  0  0  3  0  0  0  0  0  0
  134.4470  135.2530  154.7120 C   0  0  0  0  0  3  0  0  0  0  0  0
  133.1070  135.2420  151.1990 N   0  0  0  0  0  0  0  0  0  0  0  0
  132.6900  136.2770  150.6580 O   0  0  0  0  0  0  0  0  0  0  0  0
  132.8000  134.0940  150.8430 O   0  0  0  0  0  0  0  0  0  0  0  0
  1  4  1  0  0  0  0
  1  2  1  0  0  0  0
  2 16  1  0  0  0  0
  3  2  2  0  0  0  0
  5  1  1  0  0  0  0
  6  7  1  0  0  0  0
  7  8  2  0  0  0  0
  8  5  1  0  0  0  0
  9  8  1  0  0  0  0
 10  9  2  0  0  0  0
 11  6  2  0  0  0  0
 11 10  1  0  0  0  0
 12 13  1  0  0  0  0
 13  6  1  0  0  0  0
 14 11  1  0  0  0  0
 15 14  1  0  0  0  0
 17 16  1  0  0  0  0
 18 23  1  0  0  0  0
 18 17  1  0  0  0  0
 19 18  2  0  0  0  0
 20 21  2  0  0  0  0
 20 19  1  0  0  0  0
 21 22  1  0  0  0  0
 22 23  2  0  0  0  0
 24 21  1  0  0  0  0
 25 24  2  0  0  0  0
 26 24  2  0  0  0  0
M  END
>  <MODEL>
2

>  <REMARK>
 VINA RESULT:    -7.718      7.256     10.266
 INTER + INTRA:         -11.697
 INTER:                 -10.517
 INTRA:                  -1.180
 UNBOUND:                -0.595
  Name = CHEMBL79105
  9 active torsions:
  status: ('A' for Active; 'I' for Inactive)
    1  A    between atoms: C_1  and  O_2
    2  A    between atoms: O_2  and  C_3
    3  A    between atoms: C_5  and  C_6
    4  A    between atoms: C_6  and  N_7
    5  A    between atoms: C_8  and  C_10
    6  A    between atoms: C_10  and  C_11
    7  A    between atoms: C_11  and  C_12
    8  A    between atoms: C_15  and  N_16
    9  A    between atoms: C_23  and  O_24
                            x       y       z     vdW  Elec       q    Type
                         _______ _______ _______ _____ _____    ______ ____

>  <TORSDO>
F 8

>  <SCORE>
-7.718

>  <RMSD_LB>
7.256

>  <RMSD_UB>
10.266

$$$$
CHEMBL79105
 OpenBabel10172500523D

 26 27  0  0  0  0  0  0  0  0999 V2000
  145.4460  138.5050  149.5400 N   0  0  0  0  0  0  0  0  0  0  0  0
  144.1760  138.7020  149.0440 C   0  0  0  0  0  0  0  0  0  0  0  0
  143.7780  139.7800  148.6190 O   0  0  0  0  0  0  0  0  0  0  0  0
  145.6930  137.6090  149.8650 H   0  0  0  0  0  0  0  0  0  0  0  0
  146.4340  139.5620  149.6020 C   0  0  0  0  0  2  0  0  0  0  0  0
  146.6010  140.3960  153.3390 C   0  0  0  0  0  0  0  0  0  0  0  0
  146.7100  139.7060  152.1240 C   0  0  0  0  0  3  0  0  0  0  0  0
  146.3700  140.3250  150.9050 C   0  0  0  0  0  0  0  0  0  0  0  0
  145.9120  141.6500  150.9230 C   0  0  0  0  0  3  0  0  0  0  0  0
  145.8020  142.3480  152.1270 C   0  0  0  0  0  3  0  0  0  0  0  0
  146.1430  141.7210  153.3230 C   0  0  0  0  0  0  0  0  0  0  0  0
  146.0590  138.8550  155.0810 C   0  0  0  0  0  1  0  0  0  0  0  0
  146.9010  139.8780  154.5720 O   0  0  0  0  0  0  0  0  0  0  0  0
  146.0280  142.4050  154.5050 O   0  0  0  0  0  0  0  0  0  0  0  0
  145.3400  143.0310  154.6190 H   0  0  0  0  0  0  0  0  0  0  0  0
  143.2940  137.4670  149.1160 C   0  0  0  0  0  2  0  0  0  0  0  0
  143.5360  136.6920  150.4110 C   0  0  0  0  0  2  0  0  0  0  0  0
  142.7070  137.2090  151.5660 C   0  0  0  0  0  0  0  0  0  0  0  0
  143.3170  137.5980  152.7680 C   0  0  0  0  0  3  0  0  0  0  0  0
  142.5520  138.1050  153.8250 C   0  0  0  0  0  3  0  0  0  0  0  0
  141.1640  138.2200  153.6790 C   0  0  0  0  0  0  0  0  0  0  0  0
  140.5400  137.8220  152.4910 C   0  0  0  0  0  3  0  0  0  0  0  0
  141.3130  137.3170  151.4410 C   0  0  0  0  0  3  0  0  0  0  0  0
  140.3580  138.7630  154.7790 N   0  0  0  0  0  0  0  0  0  0  0  0
  140.6430  138.4130  155.9340 O   0  0  0  0  0  0  0  0  0  0  0  0
  139.4360  139.5410  154.4900 O   0  0  0  0  0  0  0  0  0  0  0  0
  1  5  1  0  0  0  0
  1  4  1  0  0  0  0
  2 16  1  0  0  0  0
  2  1  1  0  0  0  0
  3  2  2  0  0  0  0
  5  8  1  0  0  0  0
  6 13  1  0  0  0  0
  7  6  2  0  0  0  0
  8  9  2  0  0  0  0
  8  7  1  0  0  0  0
  9 10  1  0  0  0  0
 10 11  2  0  0  0  0
 11  6  1  0  0  0  0
 11 14  1  0  0  0  0
 13 12  1  0  0  0  0
 14 15  1  0  0  0  0
 16 17  1  0  0  0  0
 17 18  1  0  0  0  0
 18 19  1  0  0  0  0
 19 20  2  0  0  0  0
 21 20  1  0  0  0  0
 21 24  1  0  0  0  0
 22 21  2  0  0  0  0
 23 18  2  0  0  0  0
 23 22  1  0  0  0  0
 24 25  2  0  0  0  0
 26 24  2  0  0  0  0
M  END
>  <MODEL>
3

>  <REMARK>
 VINA RESULT:    -7.714      2.711      5.989
 INTER + INTRA:         -11.692
 INTER:                 -10.343
 INTRA:                  -1.349
 UNBOUND:                -0.595
  Name = CHEMBL79105
  9 active torsions:
  status: ('A' for Active; 'I' for Inactive)
    1  A    between atoms: C_1  and  O_2
    2  A    between atoms: O_2  and  C_3
    3  A    between atoms: C_5  and  C_6
    4  A    between atoms: C_6  and  N_7
    5  A    between atoms: C_8  and  C_10
    6  A    between atoms: C_10  and  C_11
    7  A    between atoms: C_11  and  C_12
    8  A    between atoms: C_15  and  N_16
    9  A    between atoms: C_23  and  O_24
                            x       y       z     vdW  Elec       q    Type
                         _______ _______ _______ _____ _____    ______ ____

>  <TORSDO>
F 8

>  <SCORE>
-7.714

>  <RMSD_LB>
2.711

>  <RMSD_UB>
5.989

$$$$
CHEMBL79105
 OpenBabel10172500523D

 26 27  0  0  0  0  0  0  0  0999 V2000
  143.6260  139.5640  151.8170 N   0  0  0  0  0  0  0  0  0  0  0  0
  143.6560  138.3790  151.1160 C   0  0  0  0  0  0  0  0  0  0  0  0
  144.3870  138.1830  150.1520 O   0  0  0  0  0  0  0  0  0  0  0  0
  143.0100  139.6470  152.5800 H   0  0  0  0  0  0  0  0  0  0  0  0
  144.4660  140.6940  151.4770 C   0  0  0  0  0  2  0  0  0  0  0  0
  146.9050  140.0710  154.3680 C   0  0  0  0  0  0  0  0  0  0  0  0
  145.8290  139.9280  153.4800 C   0  0  0  0  0  3  0  0  0  0  0  0
  145.6570  140.8150  152.3990 C   0  0  0  0  0  0  0  0  0  0  0  0
  146.5790  141.8560  152.2240 C   0  0  0  0  0  3  0  0  0  0  0  0
  147.6560  142.0070  153.0990 C   0  0  0  0  0  3  0  0  0  0  0  0
  147.8120  141.1200  154.1630 C   0  0  0  0  0  0  0  0  0  0  0  0
  147.6680  137.9670  155.2000 C   0  0  0  0  0  1  0  0  0  0  0  0
  147.1510  139.2650  155.4480 O   0  0  0  0  0  0  0  0  0  0  0  0
  148.8660  141.2740  155.0260 O   0  0  0  0  0  0  0  0  0  0  0  0
  148.7430  141.7210  155.8400 H   0  0  0  0  0  0  0  0  0  0  0  0
  142.6590  137.3480  151.6180 C   0  0  0  0  0  2  0  0  0  0  0  0
  141.2260  137.7530  151.2740 C   0  0  0  0  0  2  0  0  0  0  0  0
  140.3420  137.8740  152.4970 C   0  0  0  0  0  0  0  0  0  0  0  0
  140.8890  138.2100  153.7440 C   0  0  0  0  0  3  0  0  0  0  0  0
  140.0670  138.3510  154.8680 C   0  0  0  0  0  3  0  0  0  0  0  0
  138.6860  138.1490  154.7440 C   0  0  0  0  0  0  0  0  0  0  0  0
  138.1290  137.8000  153.5080 C   0  0  0  0  0  3  0  0  0  0  0  0
  138.9600  137.6610  152.3910 C   0  0  0  0  0  3  0  0  0  0  0  0
  137.8170  138.3090  155.9150 N   0  0  0  0  0  0  0  0  0  0  0  0
  138.3390  138.2390  157.0370 O   0  0  0  0  0  0  0  0  0  0  0  0
  136.6090  138.5030  155.7160 O   0  0  0  0  0  0  0  0  0  0  0  0
  1  4  1  0  0  0  0
  2 16  1  0  0  0  0
  2  1  1  0  0  0  0
  3  2  2  0  0  0  0
  5  1  1  0  0  0  0
  5  8  1  0  0  0  0
  6 13  1  0  0  0  0
  7  6  2  0  0  0  0
  8  7  1  0  0  0  0
  9  8  2  0  0  0  0
  9 10  1  0  0  0  0
 10 11  2  0  0  0  0
 11  6  1  0  0  0  0
 11 14  1  0  0  0  0
 12 13  1  0  0  0  0
 14 15  1  0  0  0  0
 17 16  1  0  0  0  0
 17 18  1  0  0  0  0
 18 19  1  0  0  0  0
 19 20  2  0  0  0  0
 21 20  1  0  0  0  0
 21 24  1  0  0  0  0
 22 21  2  0  0  0  0
 23 18  2  0  0  0  0
 23 22  1  0  0  0  0
 24 25  2  0  0  0  0
 26 24  2  0  0  0  0
M  END
>  <MODEL>
4

>  <REMARK>
 VINA RESULT:    -7.635      3.673      6.894
 INTER + INTRA:         -11.578
 INTER:                 -10.841
 INTRA:                  -0.737
 UNBOUND:                -0.595
  Name = CHEMBL79105
  9 active torsions:
  status: ('A' for Active; 'I' for Inactive)
    1  A    between atoms: C_1  and  O_2
    2  A    between atoms: O_2  and  C_3
    3  A    between atoms: C_5  and  C_6
    4  A    between atoms: C_6  and  N_7
    5  A    between atoms: C_8  and  C_10
    6  A    between atoms: C_10  and  C_11
    7  A    between atoms: C_11  and  C_12
    8  A    between atoms: C_15  and  N_16
    9  A    between atoms: C_23  and  O_24
                            x       y       z     vdW  Elec       q    Type
                         _______ _______ _______ _____ _____    ______ ____

>  <TORSDO>
F 8

>  <SCORE>
-7.635

>  <RMSD_LB>
3.673

>  <RMSD_UB>
6.894

$$$$
CHEMBL79105
 OpenBabel10172500523D

 26 27  0  0  0  0  0  0  0  0999 V2000
  134.1630  134.6230  152.3640 N   0  0  0  0  0  0  0  0  0  0  0  0
  134.3720  134.5260  153.7220 C   0  0  0  0  0  0  0  0  0  0  0  0
  134.2860  133.4740  154.3450 O   0  0  0  0  0  0  0  0  0  0  0  0
  134.2490  135.5040  151.9340 H   0  0  0  0  0  0  0  0  0  0  0  0
  133.8230  133.4800  151.5420 C   0  0  0  0  0  2  0  0  0  0  0  0
  134.1740  133.3470  147.7280 C   0  0  0  0  0  0  0  0  0  0  0  0
  134.2260  132.9890  149.0820 C   0  0  0  0  0  3  0  0  0  0  0  0
  133.7150  133.8430  150.0790 C   0  0  0  0  0  0  0  0  0  0  0  0
  133.1550  135.0690  149.6980 C   0  0  0  0  0  3  0  0  0  0  0  0
  133.0950  135.4370  148.3530 C   0  0  0  0  0  3  0  0  0  0  0  0
  133.6030  134.5800  147.3790 C   0  0  0  0  0  0  0  0  0  0  0  0
  136.0210  132.2300  146.7080 C   0  0  0  0  0  1  0  0  0  0  0  0
  134.6490  132.5890  146.6900 O   0  0  0  0  0  0  0  0  0  0  0  0
  133.5500  134.9450  146.0590 O   0  0  0  0  0  0  0  0  0  0  0  0
  134.3360  135.1820  145.6070 H   0  0  0  0  0  0  0  0  0  0  0  0
  134.6730  135.8570  154.3900 C   0  0  0  0  0  2  0  0  0  0  0  0
  135.7320  135.6990  155.4820 C   0  0  0  0  0  2  0  0  0  0  0  0
  136.9930  136.4830  155.1920 C   0  0  0  0  0  0  0  0  0  0  0  0
  137.2420  136.9900  153.9080 C   0  0  0  0  0  3  0  0  0  0  0  0
  138.3930  137.7420  153.6490 C   0  0  0  0  0  3  0  0  0  0  0  0
  139.3060  137.9850  154.6820 C   0  0  0  0  0  0  0  0  0  0  0  0
  139.0770  137.4740  155.9660 C   0  0  0  0  0  3  0  0  0  0  0  0
  137.9240  136.7240  156.2140 C   0  0  0  0  0  3  0  0  0  0  0  0
  140.5090  138.7830  154.4200 N   0  0  0  0  0  0  0  0  0  0  0  0
  141.0790  139.3070  155.3890 O   0  0  0  0  0  0  0  0  0  0  0  0
  140.8870  138.8900  153.2440 O   0  0  0  0  0  0  0  0  0  0  0  0
  1  2  1  0  0  0  0
  2  3  2  0  0  0  0
  2 16  1  0  0  0  0
  4  1  1  0  0  0  0
  5  1  1  0  0  0  0
  6  7  1  0  0  0  0
  7  8  2  0  0  0  0
  8  5  1  0  0  0  0
  9  8  1  0  0  0  0
 10  9  2  0  0  0  0
 11  6  2  0  0  0  0
 11 10  1  0  0  0  0
 13 12  1  0  0  0  0
 13  6  1  0  0  0  0
 14 11  1  0  0  0  0
 15 14  1  0  0  0  0
 16 17  1  0  0  0  0
 18 17  1  0  0  0  0
 18 23  1  0  0  0  0
 19 18  2  0  0  0  0
 20 19  1  0  0  0  0
 20 21  2  0  0  0  0
 21 22  1  0  0  0  0
 22 23  2  0  0  0  0
 24 21  1  0  0  0  0
 24 25  2  0  0  0  0
 26 24  2  0  0  0  0
M  END
>  <MODEL>
5

>  <REMARK>
 VINA RESULT:    -7.277      9.039     11.955
 INTER + INTRA:         -11.062
 INTER:                 -10.471
 INTRA:                  -0.591
 UNBOUND:                -0.595
  Name = CHEMBL79105
  9 active torsions:
  status: ('A' for Active; 'I' for Inactive)
    1  A    between atoms: C_1  and  O_2
    2  A    between atoms: O_2  and  C_3
    3  A    between atoms: C_5  and  C_6
    4  A    between atoms: C_6  and  N_7
    5  A    between atoms: C_8  and  C_10
    6  A    between atoms: C_10  and  C_11
    7  A    between atoms: C_11  and  C_12
    8  A    between atoms: C_15  and  N_16
    9  A    between atoms: C_23  and  O_24
                            x       y       z     vdW  Elec       q    Type
                         _______ _______ _______ _____ _____    ______ ____

>  <TORSDO>
F 8

>  <SCORE>
-7.277

>  <RMSD_LB>
9.039

>  <RMSD_UB>
11.955

$$$$
CHEMBL79105
 OpenBabel10172500523D

 26 27  0  0  0  0  0  0  0  0999 V2000
  143.7100  138.7100  154.4510 N   0  0  0  0  0  0  0  0  0  0  0  0
  142.4930  139.0070  155.0250 C   0  0  0  0  0  0  0  0  0  0  0  0
  142.2900  140.0120  155.6960 O   0  0  0  0  0  0  0  0  0  0  0  0
  143.7960  137.8810  153.9270 H   0  0  0  0  0  0  0  0  0  0  0  0
  144.8680  139.5690  154.5870 C   0  0  0  0  0  2  0  0  0  0  0  0
  144.7320  140.8780  150.9870 C   0  0  0  0  0  0  0  0  0  0  0  0
  144.4970  140.1020  152.1300 C   0  0  0  0  0  3  0  0  0  0  0  0
  145.0770  140.4390  153.3680 C   0  0  0  0  0  0  0  0  0  0  0  0
  145.9050  141.5670  153.4430 C   0  0  0  0  0  3  0  0  0  0  0  0
  146.1450  142.3500  152.3130 C   0  0  0  0  0  3  0  0  0  0  0  0
  145.5620  142.0020  151.0960 C   0  0  0  0  0  0  0  0  0  0  0  0
  142.9110  140.0830  149.6630 C   0  0  0  0  0  1  0  0  0  0  0  0
  144.2190  140.6260  149.7410 O   0  0  0  0  0  0  0  0  0  0  0  0
  145.8040  142.7670  149.9840 O   0  0  0  0  0  0  0  0  0  0  0  0
  145.1230  143.3020  149.6260 H   0  0  0  0  0  0  0  0  0  0  0  0
  141.4330  137.9440  154.7910 C   0  0  0  0  0  2  0  0  0  0  0  0
  140.2300  138.5200  154.0430 C   0  0  0  0  0  2  0  0  0  0  0  0
  140.0710  137.9380  152.6560 C   0  0  0  0  0  0  0  0  0  0  0  0
  138.7980  137.7840  152.0860 C   0  0  0  0  0  3  0  0  0  0  0  0
  138.6530  137.2750  150.7910 C   0  0  0  0  0  3  0  0  0  0  0  0
  139.7920  136.9110  150.0610 C   0  0  0  0  0  0  0  0  0  0  0  0
  141.0680  137.0460  150.6220 C   0  0  0  0  0  3  0  0  0  0  0  0
  141.2010  137.5570  151.9170 C   0  0  0  0  0  3  0  0  0  0  0  0
  139.6480  136.3880  148.6970 N   0  0  0  0  0  0  0  0  0  0  0  0
  138.5590  135.8890  148.3810 O   0  0  0  0  0  0  0  0  0  0  0  0
  140.6260  136.4760  147.9390 O   0  0  0  0  0  0  0  0  0  0  0  0
  1  5  1  0  0  0  0
  1  2  1  0  0  0  0
  2  3  2  0  0  0  0
  4  1  1  0  0  0  0
  6 11  2  0  0  0  0
  6  7  1  0  0  0  0
  7  8  2  0  0  0  0
  8  9  1  0  0  0  0
  8  5  1  0  0  0  0
 10  9  2  0  0  0  0
 11 10  1  0  0  0  0
 12 13  1  0  0  0  0
 13  6  1  0  0  0  0
 14 11  1  0  0  0  0
 15 14  1  0  0  0  0
 16  2  1  0  0  0  0
 17 16  1  0  0  0  0
 18 17  1  0  0  0  0
 19 18  1  0  0  0  0
 20 19  2  0  0  0  0
 21 22  2  0  0  0  0
 21 20  1  0  0  0  0
 22 23  1  0  0  0  0
 23 18  2  0  0  0  0
 24 21  1  0  0  0  0
 25 24  2  0  0  0  0
 26 24  2  0  0  0  0
M  END
>  <MODEL>
6

>  <REMARK>
 VINA RESULT:    -7.207      3.357      6.104
 INTER + INTRA:         -10.963
 INTER:                  -9.970
 INTRA:                  -0.993
 UNBOUND:                -0.595
  Name = CHEMBL79105
  9 active torsions:
  status: ('A' for Active; 'I' for Inactive)
    1  A    between atoms: C_1  and  O_2
    2  A    between atoms: O_2  and  C_3
    3  A    between atoms: C_5  and  C_6
    4  A    between atoms: C_6  and  N_7
    5  A    between atoms: C_8  and  C_10
    6  A    between atoms: C_10  and  C_11
    7  A    between atoms: C_11  and  C_12
    8  A    between atoms: C_15  and  N_16
    9  A    between atoms: C_23  and  O_24
                            x       y       z     vdW  Elec       q    Type
                         _______ _______ _______ _____ _____    ______ ____

>  <TORSDO>
F 8

>  <SCORE>
-7.207

>  <RMSD_LB>
3.357

>  <RMSD_UB>
6.104

$$$$
CHEMBL79105
 OpenBabel10172500523D

 26 27  0  0  0  0  0  0  0  0999 V2000
  142.8870  137.8580  150.4530 N   0  0  0  0  0  0  0  0  0  0  0  0
  142.9870  138.7750  149.4300 C   0  0  0  0  0  0  0  0  0  0  0  0
  142.1490  138.8910  148.5430 O   0  0  0  0  0  0  0  0  0  0  0  0
  143.6020  137.8230  151.1290 H   0  0  0  0  0  0  0  0  0  0  0  0
  141.7710  136.9440  150.5760 C   0  0  0  0  0  2  0  0  0  0  0  0
  140.1080  138.3710  153.7200 C   0  0  0  0  0  0  0  0  0  0  0  0
  141.0830  137.9470  152.8060 C   0  0  0  0  0  3  0  0  0  0  0  0
  140.7220  137.4520  151.5380 C   0  0  0  0  0  0  0  0  0  0  0  0
  139.3640  137.3810  151.2000 C   0  0  0  0  0  3  0  0  0  0  0  0
  138.3840  137.8020  152.1000 C   0  0  0  0  0  3  0  0  0  0  0  0
  138.7580  138.2900  153.3500 C   0  0  0  0  0  0  0  0  0  0  0  0
  140.7290  137.9310  155.9830 C   0  0  0  0  0  1  0  0  0  0  0  0
  140.3600  138.8590  154.9750 O   0  0  0  0  0  0  0  0  0  0  0  0
  137.7940  138.6970  154.2360 O   0  0  0  0  0  0  0  0  0  0  0  0
  137.6910  138.2500  155.0540 H   0  0  0  0  0  0  0  0  0  0  0  0
  144.2620  139.6010  149.4720 C   0  0  0  0  0  2  0  0  0  0  0  0
  144.1280  140.7720  150.4450 C   0  0  0  0  0  2  0  0  0  0  0  0
  145.2790  140.8560  151.4230 C   0  0  0  0  0  0  0  0  0  0  0  0
  145.7020  142.0950  151.9270 C   0  0  0  0  0  3  0  0  0  0  0  0
  146.7470  142.1680  152.8550 C   0  0  0  0  0  3  0  0  0  0  0  0
  147.3780  140.9920  153.2790 C   0  0  0  0  0  0  0  0  0  0  0  0
  146.9750  139.7500  152.7740 C   0  0  0  0  0  3  0  0  0  0  0  0
  145.9300  139.6880  151.8470 C   0  0  0  0  0  3  0  0  0  0  0  0
  148.4650  141.0610  154.2620 N   0  0  0  0  0  0  0  0  0  0  0  0
  148.8940  139.9950  154.7270 O   0  0  0  0  0  0  0  0  0  0  0  0
  148.8940  142.1830  154.5720 O   0  0  0  0  0  0  0  0  0  0  0  0
  1  5  1  0  0  0  0
  1  4  1  0  0  0  0
  2 16  1  0  0  0  0
  2  1  1  0  0  0  0
  3  2  2  0  0  0  0
  5  8  1  0  0  0  0
  6 13  1  0  0  0  0
  7  6  2  0  0  0  0
  8  7  1  0  0  0  0
  9  8  2  0  0  0  0
  9 10  1  0  0  0  0
 10 11  2  0  0  0  0
 11  6  1  0  0  0  0
 11 14  1  0  0  0  0
 13 12  1  0  0  0  0
 14 15  1  0  0  0  0
 16 17  1  0  0  0  0
 17 18  1  0  0  0  0
 18 23  2  0  0  0  0
 18 19  1  0  0  0  0
 19 20  2  0  0  0  0
 20 21  1  0  0  0  0
 21 24  1  0  0  0  0
 22 21  2  0  0  0  0
 23 22  1  0  0  0  0
 24 26  2  0  0  0  0
 24 25  2  0  0  0  0
M  END
>  <MODEL>
7

>  <REMARK>
 VINA RESULT:    -7.157      2.977      5.748
 INTER + INTRA:         -10.890
 INTER:                 -10.034
 INTRA:                  -0.856
 UNBOUND:                -0.595
  Name = CHEMBL79105
  9 active torsions:
  status: ('A' for Active; 'I' for Inactive)
    1  A    between atoms: C_1  and  O_2
    2  A    between atoms: O_2  and  C_3
    3  A    between atoms: C_5  and  C_6
    4  A    between atoms: C_6  and  N_7
    5  A    between atoms: C_8  and  C_10
    6  A    between atoms: C_10  and  C_11
    7  A    between atoms: C_11  and  C_12
    8  A    between atoms: C_15  and  N_16
    9  A    between atoms: C_23  and  O_24
                            x       y       z     vdW  Elec       q    Type
                         _______ _______ _______ _____ _____    ______ ____

>  <TORSDO>
F 8

>  <SCORE>
-7.157

>  <RMSD_LB>
2.977

>  <RMSD_UB>
5.748

$$$$
CHEMBL79105
 OpenBabel10172500523D

 26 27  0  0  0  0  0  0  0  0999 V2000
  145.0330  140.5790  153.6830 N   0  0  0  0  0  0  0  0  0  0  0  0
  144.8620  139.5560  154.5900 C   0  0  0  0  0  0  0  0  0  0  0  0
  145.7880  138.8960  155.0460 O   0  0  0  0  0  0  0  0  0  0  0  0
  144.2390  141.0630  153.3600 H   0  0  0  0  0  0  0  0  0  0  0  0
  146.3350  140.9720  153.1860 C   0  0  0  0  0  2  0  0  0  0  0  0
  145.9480  140.4430  149.4090 C   0  0  0  0  0  0  0  0  0  0  0  0
  145.9110  140.2270  150.7940 C   0  0  0  0  0  3  0  0  0  0  0  0
  146.3230  141.2270  151.6960 C   0  0  0  0  0  0  0  0  0  0  0  0
  146.7790  142.4510  151.1880 C   0  0  0  0  0  3  0  0  0  0  0  0
  146.8180  142.6800  149.8120 C   0  0  0  0  0  3  0  0  0  0  0  0
  146.4070  141.6800  148.9330 C   0  0  0  0  0  0  0  0  0  0  0  0
  144.5410  138.6190  148.7840 C   0  0  0  0  0  1  0  0  0  0  0  0
  145.5760  139.5320  148.4570 O   0  0  0  0  0  0  0  0  0  0  0  0
  146.4520  141.9030  147.5820 O   0  0  0  0  0  0  0  0  0  0  0  0
  145.6860  142.2000  147.1300 H   0  0  0  0  0  0  0  0  0  0  0  0
  143.4070  139.2860  154.9380 C   0  0  0  0  0  2  0  0  0  0  0  0
  142.7600  138.3540  153.9130 C   0  0  0  0  0  2  0  0  0  0  0  0
  141.2740  138.1760  154.1420 C   0  0  0  0  0  0  0  0  0  0  0  0
  140.3850  138.1210  153.0590 C   0  0  0  0  0  3  0  0  0  0  0  0
  139.0160  137.9250  153.2690 C   0  0  0  0  0  3  0  0  0  0  0  0
  138.5310  137.7880  154.5760 C   0  0  0  0  0  0  0  0  0  0  0  0
  139.4050  137.8540  155.6680 C   0  0  0  0  0  3  0  0  0  0  0  0
  140.7720  138.0500  155.4460 C   0  0  0  0  0  3  0  0  0  0  0  0
  137.0980  137.5690  154.8030 N   0  0  0  0  0  0  0  0  0  0  0  0
  136.5380  138.2530  155.6730 O   0  0  0  0  0  0  0  0  0  0  0  0
  136.5270  136.7110  154.1120 O   0  0  0  0  0  0  0  0  0  0  0  0
  1  2  1  0  0  0  0
  2 16  1  0  0  0  0
  2  3  2  0  0  0  0
  4  1  1  0  0  0  0
  5  1  1  0  0  0  0
  6  7  1  0  0  0  0
  7  8  2  0  0  0  0
  8  5  1  0  0  0  0
  9  8  1  0  0  0  0
 10  9  2  0  0  0  0
 11  6  2  0  0  0  0
 11 10  1  0  0  0  0
 13 12  1  0  0  0  0
 13  6  1  0  0  0  0
 14 11  1  0  0  0  0
 15 14  1  0  0  0  0
 17 18  1  0  0  0  0
 17 16  1  0  0  0  0
 18 23  1  0  0  0  0
 19 20  1  0  0  0  0
 19 18  2  0  0  0  0
 20 21  2  0  0  0  0
 21 24  1  0  0  0  0
 21 22  1  0  0  0  0
 23 22  2  0  0  0  0
 24 25  2  0  0  0  0
 26 24  2  0  0  0  0
M  END
>  <MODEL>
8

>  <REMARK>
 VINA RESULT:    -7.111      3.650      6.490
 INTER + INTRA:         -10.824
 INTER:                 -10.229
 INTRA:                  -0.595
 UNBOUND:                -0.595
  Name = CHEMBL79105
  9 active torsions:
  status: ('A' for Active; 'I' for Inactive)
    1  A    between atoms: C_1  and  O_2
    2  A    between atoms: O_2  and  C_3
    3  A    between atoms: C_5  and  C_6
    4  A    between atoms: C_6  and  N_7
    5  A    between atoms: C_8  and  C_10
    6  A    between atoms: C_10  and  C_11
    7  A    between atoms: C_11  and  C_12
    8  A    between atoms: C_15  and  N_16
    9  A    between atoms: C_23  and  O_24
                            x       y       z     vdW  Elec       q    Type
                         _______ _______ _______ _____ _____    ______ ____

>  <TORSDO>
F 8

>  <SCORE>
-7.111

>  <RMSD_LB>
3.650

>  <RMSD_UB>
6.490

$$$$
CHEMBL79105
 OpenBabel10172500523D

 26 27  0  0  0  0  0  0  0  0999 V2000
  135.6840  135.1440  154.5010 N   0  0  0  0  0  0  0  0  0  0  0  0
  134.5640  135.6270  153.8610 C   0  0  0  0  0  0  0  0  0  0  0  0
  134.0190  136.6830  154.1580 O   0  0  0  0  0  0  0  0  0  0  0  0
  136.0640  134.2850  154.2060 H   0  0  0  0  0  0  0  0  0  0  0  0
  136.3260  135.8500  155.5900 C   0  0  0  0  0  2  0  0  0  0  0  0
  135.3500  136.1440  159.2850 C   0  0  0  0  0  0  0  0  0  0  0  0
  135.9870  136.3630  158.0560 C   0  0  0  0  0  3  0  0  0  0  0  0
  135.6010  135.6540  156.9020 C   0  0  0  0  0  0  0  0  0  0  0  0
  134.5670  134.7130  156.9990 C   0  0  0  0  0  3  0  0  0  0  0  0
  133.9230  134.4880  158.2170 C   0  0  0  0  0  3  0  0  0  0  0  0
  134.3160  135.1990  159.3490 C   0  0  0  0  0  0  0  0  0  0  0  0
  136.9140  137.4350  160.5450 C   0  0  0  0  0  1  0  0  0  0  0  0
  135.6590  136.7780  160.4590 O   0  0  0  0  0  0  0  0  0  0  0  0
  133.6880  134.9720  160.5460 O   0  0  0  0  0  0  0  0  0  0  0  0
  133.9250  134.2300  161.0660 H   0  0  0  0  0  0  0  0  0  0  0  0
  134.0330  134.7020  152.7790 C   0  0  0  0  0  2  0  0  0  0  0  0
  135.1710  133.9500  152.0890 C   0  0  0  0  0  2  0  0  0  0  0  0
  134.9920  133.8650  150.5890 C   0  0  0  0  0  0  0  0  0  0  0  0
  135.8020  134.6200  149.7280 C   0  0  0  0  0  3  0  0  0  0  0  0
  135.6570  134.5170  148.3390 C   0  0  0  0  0  3  0  0  0  0  0  0
  134.6880  133.6570  147.8080 C   0  0  0  0  0  0  0  0  0  0  0  0
  133.8630  132.9080  148.6560 C   0  0  0  0  0  3  0  0  0  0  0  0
  134.0170  133.0180  150.0420 C   0  0  0  0  0  3  0  0  0  0  0  0
  134.5390  133.5350  146.3540 N   0  0  0  0  0  0  0  0  0  0  0  0
  134.2720  134.5610  145.7110 O   0  0  0  0  0  0  0  0  0  0  0  0
  134.6870  132.4110  145.8500 O   0  0  0  0  0  0  0  0  0  0  0  0
  1  5  1  0  0  0  0
  2  3  2  0  0  0  0
  2  1  1  0  0  0  0
  4  1  1  0  0  0  0
  5  8  1  0  0  0  0
  6 11  1  0  0  0  0
  6 13  1  0  0  0  0
  7  6  2  0  0  0  0
  8  9  2  0  0  0  0
  8  7  1  0  0  0  0
  9 10  1  0  0  0  0
 10 11  2  0  0  0  0
 11 14  1  0  0  0  0
 13 12  1  0  0  0  0
 14 15  1  0  0  0  0
 16  2  1  0  0  0  0
 17 16  1  0  0  0  0
 18 17  1  0  0  0  0
 19 18  2  0  0  0  0
 20 19  1  0  0  0  0
 21 20  2  0  0  0  0
 21 22  1  0  0  0  0
 22 23  2  0  0  0  0
 23 18  1  0  0  0  0
 24 21  1  0  0  0  0
 25 24  2  0  0  0  0
 26 24  2  0  0  0  0
M  END
>  <MODEL>
9

>  <REMARK>
 VINA RESULT:    -5.308     11.432     13.110
 INTER + INTRA:          -8.230
 INTER:                  -7.900
 INTRA:                  -0.330
 UNBOUND:                -0.595
  Name = CHEMBL79105
  9 active torsions:
  status: ('A' for Active; 'I' for Inactive)
    1  A    between atoms: C_1  and  O_2
    2  A    between atoms: O_2  and  C_3
    3  A    between atoms: C_5  and  C_6
    4  A    between atoms: C_6  and  N_7
    5  A    between atoms: C_8  and  C_10
    6  A    between atoms: C_10  and  C_11
    7  A    between atoms: C_11  and  C_12
    8  A    between atoms: C_15  and  N_16
    9  A    between atoms: C_23  and  O_24
                            x       y       z     vdW  Elec       q    Type
                         _______ _______ _______ _____ _____    ______ ____

>  <TORSDO>
F 8

>  <SCORE>
-5.308

>  <RMSD_LB>
11.432

>  <RMSD_UB>
13.110

$$$$
