CHEMBL4534595
 OpenBabel10172500083D

 26 27  0  0  0  0  0  0  0  0999 V2000
  133.5710  134.3760  152.6490 N   0  0  0  0  0  0  0  0  0  0  0  0
  134.0900  135.2060  153.6240 C   0  0  0  0  0  0  0  0  0  0  0  0
  133.9750  136.4240  153.5570 O   0  0  0  0  0  0  0  0  0  0  0  0
  134.7620  134.5040  154.6050 N   0  0  0  0  0  0  0  0  0  0  0  0
  133.6760  133.3980  152.6920 H   0  0  0  0  0  0  0  0  0  0  0  0
  134.8040  133.5240  154.5160 H   0  0  0  0  0  0  0  0  0  0  0  0
  135.3930  135.0880  155.7290 C   0  0  0  0  0  0  0  0  0  0  0  0
  134.9140  134.9200  157.0350 C   0  0  0  0  0  3  0  0  0  0  0  0
  135.5070  135.5820  158.1110 C   0  0  0  0  0  3  0  0  0  0  0  0
  136.6050  136.4110  157.8890 C   0  0  0  0  0  0  0  0  0  0  0  0
  137.1340  136.5530  156.5970 C   0  0  0  0  0  3  0  0  0  0  0  0
  136.5310  135.8800  155.5240 C   0  0  0  0  0  3  0  0  0  0  0  0
  137.1950  137.1460  159.0150 N   0  0  0  0  0  0  0  0  0  0  0  0
  137.0050  136.7060  160.1560 O   0  0  0  0  0  0  0  0  0  0  0  0
  137.8480  138.1670  158.7550 O   0  0  0  0  0  0  0  0  0  0  0  0
  132.8660  135.0200  151.5600 C   0  0  0  0  0  2  0  0  0  0  0  0
  133.4990  134.7920  147.7970 C   0  0  0  0  0  0  0  0  0  0  0  0
  133.1860  135.3000  149.0640 C   0  0  0  0  0  3  0  0  0  0  0  0
  133.2450  134.4810  150.2060 C   0  0  0  0  0  0  0  0  0  0  0  0
  133.6300  133.1410  150.0650 C   0  0  0  0  0  3  0  0  0  0  0  0
  133.9400  132.6210  148.8080 C   0  0  0  0  0  3  0  0  0  0  0  0
  133.8730  133.4460  147.6850 C   0  0  0  0  0  0  0  0  0  0  0  0
  132.8430  136.7870  146.6700 C   0  0  0  0  0  1  0  0  0  0  0  0
  133.4630  135.5100  146.6300 O   0  0  0  0  0  0  0  0  0  0  0  0
  134.1750  132.9320  146.4510 O   0  0  0  0  0  0  0  0  0  0  0  0
  133.4880  132.6430  145.8830 H   0  0  0  0  0  0  0  0  0  0  0  0
  1  5  1  0  0  0  0
  1  2  1  0  0  0  0
  2  4  1  0  0  0  0
  3  2  2  0  0  0  0
  4  7  1  0  0  0  0
  6  4  1  0  0  0  0
  7  8  1  0  0  0  0
  8  9  2  0  0  0  0
 10  9  1  0  0  0  0
 10 13  1  0  0  0  0
 11 10  2  0  0  0  0
 12  7  2  0  0  0  0
 12 11  1  0  0  0  0
 13 14  2  0  0  0  0
 15 13  2  0  0  0  0
 16  1  1  0  0  0  0
 17 18  1  0  0  0  0
 18 19  2  0  0  0  0
 19 16  1  0  0  0  0
 20 19  1  0  0  0  0
 21 20  2  0  0  0  0
 22 17  2  0  0  0  0
 22 21  1  0  0  0  0
 24 23  1  0  0  0  0
 24 17  1  0  0  0  0
 25 22  1  0  0  0  0
 26 25  1  0  0  0  0
M  END
>  <MODEL>
1

>  <REMARK>
 VINA RESULT:    -7.895      0.000      0.000
 INTER + INTRA:         -10.784
 INTER:                 -10.426
 INTRA:                  -0.358
 UNBOUND:                -0.350
  Name = CHEMBL4534595
  7 active torsions:
  status: ('A' for Active; 'I' for Inactive)
    1  A    between atoms: C_1  and  O_2
    2  A    between atoms: O_2  and  C_3
    3  A    between atoms: C_5  and  C_6
    4  A    between atoms: C_6  and  N_7
    5  A    between atoms: N_10  and  C_11
    6  A    between atoms: C_14  and  N_15
    7  A    between atoms: C_22  and  O_23
                            x       y       z     vdW  Elec       q    Type
                         _______ _______ _______ _____ _____    ______ ____

>  <TORSDO>
F 6

>  <SCORE>
-7.895

>  <RMSD_LB>
0.000

>  <RMSD_UB>
0.000

$$$$
CHEMBL4534595
 OpenBabel10172500083D

 26 27  0  0  0  0  0  0  0  0999 V2000
  144.4080  138.6910  154.4460 N   0  0  0  0  0  0  0  0  0  0  0  0
  143.1250  138.9560  154.8840 C   0  0  0  0  0  0  0  0  0  0  0  0
  142.8240  140.0420  155.3670 O   0  0  0  0  0  0  0  0  0  0  0  0
  142.2910  137.8640  154.7520 N   0  0  0  0  0  0  0  0  0  0  0  0
  144.6570  137.8150  154.0730 H   0  0  0  0  0  0  0  0  0  0  0  0
  142.6760  137.0400  154.3750 H   0  0  0  0  0  0  0  0  0  0  0  0
  140.9240  137.8420  155.1160 C   0  0  0  0  0  0  0  0  0  0  0  0
  139.9040  138.2360  154.2400 C   0  0  0  0  0  3  0  0  0  0  0  0
  138.5730  138.2870  154.6580 C   0  0  0  0  0  3  0  0  0  0  0  0
  138.2480  137.9250  155.9650 C   0  0  0  0  0  0  0  0  0  0  0  0
  139.2460  137.4780  156.8440 C   0  0  0  0  0  3  0  0  0  0  0  0
  140.5790  137.4270  156.4090 C   0  0  0  0  0  3  0  0  0  0  0  0
  136.8560  138.0290  156.4180 N   0  0  0  0  0  0  0  0  0  0  0  0
  135.9740  137.5450  155.6950 O   0  0  0  0  0  0  0  0  0  0  0  0
  136.6450  138.5990  157.4990 O   0  0  0  0  0  0  0  0  0  0  0  0
  145.3680  139.7690  154.5650 C   0  0  0  0  0  2  0  0  0  0  0  0
  144.9230  141.0030  150.9750 C   0  0  0  0  0  0  0  0  0  0  0  0
  144.7900  140.2480  152.1480 C   0  0  0  0  0  3  0  0  0  0  0  0
  145.4800  140.6060  153.3190 C   0  0  0  0  0  0  0  0  0  0  0  0
  146.3040  141.7410  153.3060 C   0  0  0  0  0  3  0  0  0  0  0  0
  146.4480  142.4980  152.1430 C   0  0  0  0  0  3  0  0  0  0  0  0
  145.7590  142.1270  150.9890 C   0  0  0  0  0  0  0  0  0  0  0  0
  143.0440  140.0620  149.8490 C   0  0  0  0  0  1  0  0  0  0  0  0
  144.2970  140.7270  149.7870 O   0  0  0  0  0  0  0  0  0  0  0  0
  145.9050  142.8710  149.8470 O   0  0  0  0  0  0  0  0  0  0  0  0
  146.2450  143.7420  149.8960 H   0  0  0  0  0  0  0  0  0  0  0  0
  1 16  1  0  0  0  0
  1  2  1  0  0  0  0
  2  3  2  0  0  0  0
  4  2  1  0  0  0  0
  4  7  1  0  0  0  0
  5  1  1  0  0  0  0
  6  4  1  0  0  0  0
  7 12  1  0  0  0  0
  8  9  1  0  0  0  0
  8  7  2  0  0  0  0
  9 10  2  0  0  0  0
 10 13  1  0  0  0  0
 10 11  1  0  0  0  0
 12 11  2  0  0  0  0
 13 15  2  0  0  0  0
 14 13  2  0  0  0  0
 17 22  2  0  0  0  0
 17 18  1  0  0  0  0
 18 19  2  0  0  0  0
 19 16  1  0  0  0  0
 20 19  1  0  0  0  0
 21 20  2  0  0  0  0
 22 21  1  0  0  0  0
 24 23  1  0  0  0  0
 24 17  1  0  0  0  0
 25 26  1  0  0  0  0
 25 22  1  0  0  0  0
M  END
>  <MODEL>
2

>  <REMARK>
 VINA RESULT:    -7.890      7.969     10.579
 INTER + INTRA:         -10.777
 INTER:                 -10.328
 INTRA:                  -0.449
 UNBOUND:                -0.350
  Name = CHEMBL4534595
  7 active torsions:
  status: ('A' for Active; 'I' for Inactive)
    1  A    between atoms: C_1  and  O_2
    2  A    between atoms: O_2  and  C_3
    3  A    between atoms: C_5  and  C_6
    4  A    between atoms: C_6  and  N_7
    5  A    between atoms: N_10  and  C_11
    6  A    between atoms: C_14  and  N_15
    7  A    between atoms: C_22  and  O_23
                            x       y       z     vdW  Elec       q    Type
                         _______ _______ _______ _____ _____    ______ ____

>  <TORSDO>
F 6

>  <SCORE>
-7.890

>  <RMSD_LB>
7.969

>  <RMSD_UB>
10.579

$$$$
CHEMBL4534595
 OpenBabel10172500083D

 26 27  0  0  0  0  0  0  0  0999 V2000
  133.8630  134.9670  154.2490 N   0  0  0  0  0  0  0  0  0  0  0  0
  134.1620  134.5590  152.9640 C   0  0  0  0  0  0  0  0  0  0  0  0
  135.1000  133.8040  152.7330 O   0  0  0  0  0  0  0  0  0  0  0  0
  133.3280  135.1320  152.0250 N   0  0  0  0  0  0  0  0  0  0  0  0
  133.1200  135.5850  154.4360 H   0  0  0  0  0  0  0  0  0  0  0  0
  132.6330  135.7490  152.3500 H   0  0  0  0  0  0  0  0  0  0  0  0
  133.3970  134.8980  150.6310 C   0  0  0  0  0  0  0  0  0  0  0  0
  132.8270  133.7690  150.0270 C   0  0  0  0  0  3  0  0  0  0  0  0
  132.9900  133.5220  148.6620 C   0  0  0  0  0  3  0  0  0  0  0  0
  133.7170  134.4200  147.8820 C   0  0  0  0  0  0  0  0  0  0  0  0
  134.2520  135.5830  148.4550 C   0  0  0  0  0  3  0  0  0  0  0  0
  134.0790  135.8220  149.8280 C   0  0  0  0  0  3  0  0  0  0  0  0
  133.9300  134.1320  146.4590 N   0  0  0  0  0  0  0  0  0  0  0  0
  134.3080  135.0600  145.7300 O   0  0  0  0  0  0  0  0  0  0  0  0
  133.7160  132.9750  146.0690 O   0  0  0  0  0  0  0  0  0  0  0  0
  134.6980  134.4380  155.3070 C   0  0  0  0  0  2  0  0  0  0  0  0
  136.6780  137.6210  156.0540 C   0  0  0  0  0  0  0  0  0  0  0  0
  135.9290  136.6480  155.3780 C   0  0  0  0  0  3  0  0  0  0  0  0
  135.4660  135.5010  156.0460 C   0  0  0  0  0  0  0  0  0  0  0  0
  135.7570  135.3400  157.4080 C   0  0  0  0  0  3  0  0  0  0  0  0
  136.5070  136.2980  158.0900 C   0  0  0  0  0  3  0  0  0  0  0  0
  136.9610  137.4290  157.4130 C   0  0  0  0  0  0  0  0  0  0  0  0
  138.2850  138.6280  154.6090 C   0  0  0  0  0  1  0  0  0  0  0  0
  137.1760  138.7650  155.4860 O   0  0  0  0  0  0  0  0  0  0  0  0
  137.6990  138.3690  158.0850 O   0  0  0  0  0  0  0  0  0  0  0  0
  137.3880  139.2500  158.1490 H   0  0  0  0  0  0  0  0  0  0  0  0
  1  5  1  0  0  0  0
  1 16  1  0  0  0  0
  2  1  1  0  0  0  0
  3  2  2  0  0  0  0
  4  6  1  0  0  0  0
  4  2  1  0  0  0  0
  7  4  1  0  0  0  0
  8  7  1  0  0  0  0
  9  8  2  0  0  0  0
 10 11  2  0  0  0  0
 10  9  1  0  0  0  0
 11 12  1  0  0  0  0
 12  7  2  0  0  0  0
 13 10  1  0  0  0  0
 14 13  2  0  0  0  0
 15 13  2  0  0  0  0
 16 19  1  0  0  0  0
 17 22  1  0  0  0  0
 18 19  1  0  0  0  0
 18 17  2  0  0  0  0
 19 20  2  0  0  0  0
 20 21  1  0  0  0  0
 22 25  1  0  0  0  0
 22 21  2  0  0  0  0
 23 24  1  0  0  0  0
 24 17  1  0  0  0  0
 25 26  1  0  0  0  0
M  END
>  <MODEL>
3

>  <REMARK>
 VINA RESULT:    -7.758      1.937      9.071
 INTER + INTRA:         -10.603
 INTER:                 -10.072
 INTRA:                  -0.530
 UNBOUND:                -0.350
  Name = CHEMBL4534595
  7 active torsions:
  status: ('A' for Active; 'I' for Inactive)
    1  A    between atoms: C_1  and  O_2
    2  A    between atoms: O_2  and  C_3
    3  A    between atoms: C_5  and  C_6
    4  A    between atoms: C_6  and  N_7
    5  A    between atoms: N_10  and  C_11
    6  A    between atoms: C_14  and  N_15
    7  A    between atoms: C_22  and  O_23
                            x       y       z     vdW  Elec       q    Type
                         _______ _______ _______ _____ _____    ______ ____

>  <TORSDO>
F 6

>  <SCORE>
-7.758

>  <RMSD_LB>
1.937

>  <RMSD_UB>
9.071

$$$$
CHEMBL4534595
 OpenBabel10172500083D

 26 27  0  0  0  0  0  0  0  0999 V2000
  144.7890  138.6050  150.6580 N   0  0  0  0  0  0  0  0  0  0  0  0
  143.7070  138.9650  151.4380 C   0  0  0  0  0  0  0  0  0  0  0  0
  143.4180  140.1410  151.6300 O   0  0  0  0  0  0  0  0  0  0  0  0
  143.0660  137.8690  151.9790 N   0  0  0  0  0  0  0  0  0  0  0  0
  145.0340  137.6620  150.5150 H   0  0  0  0  0  0  0  0  0  0  0  0
  143.4270  136.9790  151.7670 H   0  0  0  0  0  0  0  0  0  0  0  0
  141.9270  137.9320  152.8170 C   0  0  0  0  0  0  0  0  0  0  0  0
  140.6200  137.9520  152.3120 C   0  0  0  0  0  3  0  0  0  0  0  0
  139.5210  138.1040  153.1600 C   0  0  0  0  0  3  0  0  0  0  0  0
  139.7240  138.2200  154.5340 C   0  0  0  0  0  0  0  0  0  0  0  0
  141.0190  138.1510  155.0670 C   0  0  0  0  0  3  0  0  0  0  0  0
  142.1150  137.9950  154.2040 C   0  0  0  0  0  3  0  0  0  0  0  0
  138.5710  138.4320  155.4190 N   0  0  0  0  0  0  0  0  0  0  0  0
  137.5320  138.8840  154.9180 O   0  0  0  0  0  0  0  0  0  0  0  0
  138.7070  138.1460  156.6170 O   0  0  0  0  0  0  0  0  0  0  0  0
  145.5460  139.6870  150.0620 C   0  0  0  0  0  2  0  0  0  0  0  0
  148.2360  139.8000  152.7740 C   0  0  0  0  0  0  0  0  0  0  0  0
  147.2040  139.3460  151.9440 C   0  0  0  0  0  3  0  0  0  0  0  0
  146.6840  140.1620  150.9240 C   0  0  0  0  0  0  0  0  0  0  0  0
  147.2180  141.4460  150.7390 C   0  0  0  0  0  3  0  0  0  0  0  0
  148.2430  141.9110  151.5630 C   0  0  0  0  0  3  0  0  0  0  0  0
  148.7450  141.0900  152.5710 C   0  0  0  0  0  0  0  0  0  0  0  0
  147.9990  138.8410  154.9440 C   0  0  0  0  0  1  0  0  0  0  0  0
  148.8000  139.0790  153.7950 O   0  0  0  0  0  0  0  0  0  0  0  0
  149.7510  141.5500  153.3810 O   0  0  0  0  0  0  0  0  0  0  0  0
  150.2480  142.3030  153.1280 H   0  0  0  0  0  0  0  0  0  0  0  0
  1  2  1  0  0  0  0
  2  3  2  0  0  0  0
  2  4  1  0  0  0  0
  4  7  1  0  0  0  0
  5  1  1  0  0  0  0
  6  4  1  0  0  0  0
  7 12  1  0  0  0  0
  8  7  2  0  0  0  0
  8  9  1  0  0  0  0
  9 10  2  0  0  0  0
 10 11  1  0  0  0  0
 10 13  1  0  0  0  0
 12 11  2  0  0  0  0
 13 15  2  0  0  0  0
 14 13  2  0  0  0  0
 16  1  1  0  0  0  0
 16 19  1  0  0  0  0
 17 24  1  0  0  0  0
 18 17  2  0  0  0  0
 19 18  1  0  0  0  0
 20 19  2  0  0  0  0
 20 21  1  0  0  0  0
 21 22  2  0  0  0  0
 22 17  1  0  0  0  0
 22 25  1  0  0  0  0
 24 23  1  0  0  0  0
 26 25  1  0  0  0  0
M  END
>  <MODEL>
4

>  <REMARK>
 VINA RESULT:    -7.367      9.487     12.280
 INTER + INTRA:         -10.087
 INTER:                  -9.573
 INTRA:                  -0.514
 UNBOUND:                -0.350
  Name = CHEMBL4534595
  7 active torsions:
  status: ('A' for Active; 'I' for Inactive)
    1  A    between atoms: C_1  and  O_2
    2  A    between atoms: O_2  and  C_3
    3  A    between atoms: C_5  and  C_6
    4  A    between atoms: C_6  and  N_7
    5  A    between atoms: N_10  and  C_11
    6  A    between atoms: C_14  and  N_15
    7  A    between atoms: C_22  and  O_23
                            x       y       z     vdW  Elec       q    Type
                         _______ _______ _______ _____ _____    ______ ____

>  <TORSDO>
F 6

>  <SCORE>
-7.367

>  <RMSD_LB>
9.487

>  <RMSD_UB>
12.280

$$$$
CHEMBL4534595
 OpenBabel10172500083D

 26 27  0  0  0  0  0  0  0  0999 V2000
  136.3440  135.4200  154.9130 N   0  0  0  0  0  0  0  0  0  0  0  0
  135.7060  135.5200  153.6910 C   0  0  0  0  0  0  0  0  0  0  0  0
  135.2940  136.5950  153.2700 O   0  0  0  0  0  0  0  0  0  0  0  0
  135.5640  134.2940  153.0730 N   0  0  0  0  0  0  0  0  0  0  0  0
  136.6610  134.5560  155.2620 H   0  0  0  0  0  0  0  0  0  0  0  0
  135.9160  133.5040  153.5430 H   0  0  0  0  0  0  0  0  0  0  0  0
  134.9530  134.0900  151.8130 C   0  0  0  0  0  0  0  0  0  0  0  0
  133.6180  133.6840  151.6810 C   0  0  0  0  0  3  0  0  0  0  0  0
  133.0700  133.4060  150.4270 C   0  0  0  0  0  3  0  0  0  0  0  0
  133.8570  133.5480  149.2860 C   0  0  0  0  0  0  0  0  0  0  0  0
  135.1800  134.0020  149.3900 C   0  0  0  0  0  3  0  0  0  0  0  0
  135.7180  134.2820  150.6550 C   0  0  0  0  0  3  0  0  0  0  0  0
  133.2940  133.2050  147.9740 N   0  0  0  0  0  0  0  0  0  0  0  0
  132.1240  133.5360  147.7410 O   0  0  0  0  0  0  0  0  0  0  0  0
  134.0250  132.5990  147.1760 O   0  0  0  0  0  0  0  0  0  0  0  0
  136.5200  136.6520  155.6540 C   0  0  0  0  0  2  0  0  0  0  0  0
  139.8080  138.2040  154.4730 C   0  0  0  0  0  0  0  0  0  0  0  0
  138.4760  137.7710  154.5000 C   0  0  0  0  0  3  0  0  0  0  0  0
  137.9390  137.1540  155.6440 C   0  0  0  0  0  0  0  0  0  0  0  0
  138.7550  136.9800  156.7710 C   0  0  0  0  0  3  0  0  0  0  0  0
  140.0850  137.4010  156.7550 C   0  0  0  0  0  3  0  0  0  0  0  0
  140.6020  138.0090  155.6110 C   0  0  0  0  0  0  0  0  0  0  0  0
  140.7060  137.9960  152.2750 C   0  0  0  0  0  1  0  0  0  0  0  0
  140.4180  138.8070  153.4040 O   0  0  0  0  0  0  0  0  0  0  0  0
  141.9090  138.4200  155.5970 O   0  0  0  0  0  0  0  0  0  0  0  0
  142.3680  138.4960  154.7830 H   0  0  0  0  0  0  0  0  0  0  0  0
  1  5  1  0  0  0  0
  1 16  1  0  0  0  0
  2  1  1  0  0  0  0
  3  2  2  0  0  0  0
  4  6  1  0  0  0  0
  4  2  1  0  0  0  0
  7  4  1  0  0  0  0
  8  7  1  0  0  0  0
  9  8  2  0  0  0  0
 10 11  2  0  0  0  0
 10  9  1  0  0  0  0
 11 12  1  0  0  0  0
 12  7  2  0  0  0  0
 13 10  1  0  0  0  0
 14 13  2  0  0  0  0
 15 13  2  0  0  0  0
 17 18  2  0  0  0  0
 17 22  1  0  0  0  0
 18 19  1  0  0  0  0
 19 16  1  0  0  0  0
 19 20  2  0  0  0  0
 21 20  1  0  0  0  0
 22 21  2  0  0  0  0
 23 24  1  0  0  0  0
 24 17  1  0  0  0  0
 25 22  1  0  0  0  0
 26 25  1  0  0  0  0
M  END
>  <MODEL>
5

>  <REMARK>
 VINA RESULT:    -7.367      2.996      8.852
 INTER + INTRA:         -10.086
 INTER:                  -9.534
 INTRA:                  -0.552
 UNBOUND:                -0.350
  Name = CHEMBL4534595
  7 active torsions:
  status: ('A' for Active; 'I' for Inactive)
    1  A    between atoms: C_1  and  O_2
    2  A    between atoms: O_2  and  C_3
    3  A    between atoms: C_5  and  C_6
    4  A    between atoms: C_6  and  N_7
    5  A    between atoms: N_10  and  C_11
    6  A    between atoms: C_14  and  N_15
    7  A    between atoms: C_22  and  O_23
                            x       y       z     vdW  Elec       q    Type
                         _______ _______ _______ _____ _____    ______ ____

>  <TORSDO>
F 6

>  <SCORE>
-7.367

>  <RMSD_LB>
2.996

>  <RMSD_UB>
8.852

$$$$
CHEMBL4534595
 OpenBabel10172500083D

 26 27  0  0  0  0  0  0  0  0999 V2000
  133.8340  134.6670  152.4520 N   0  0  0  0  0  0  0  0  0  0  0  0
  134.2760  134.3030  153.7080 C   0  0  0  0  0  0  0  0  0  0  0  0
  134.3150  133.1290  154.0580 O   0  0  0  0  0  0  0  0  0  0  0  0
  134.6020  135.3960  154.4860 N   0  0  0  0  0  0  0  0  0  0  0  0
  133.7860  135.6110  152.1730 H   0  0  0  0  0  0  0  0  0  0  0  0
  134.4920  136.2890  154.0860 H   0  0  0  0  0  0  0  0  0  0  0  0
  135.0850  135.3280  155.8140 C   0  0  0  0  0  0  0  0  0  0  0  0
  134.3330  134.7810  156.8620 C   0  0  0  0  0  3  0  0  0  0  0  0
  134.8010  134.8100  158.1780 C   0  0  0  0  0  3  0  0  0  0  0  0
  136.0440  135.3770  158.4530 C   0  0  0  0  0  0  0  0  0  0  0  0
  136.8370  135.8840  157.4130 C   0  0  0  0  0  3  0  0  0  0  0  0
  136.3560  135.8460  156.0950 C   0  0  0  0  0  3  0  0  0  0  0  0
  136.5110  135.4520  159.8430 N   0  0  0  0  0  0  0  0  0  0  0  0
  136.4850  134.4150  160.5200 O   0  0  0  0  0  0  0  0  0  0  0  0
  136.9020  136.5530  160.2590 O   0  0  0  0  0  0  0  0  0  0  0  0
  133.4430  133.5910  151.5650 C   0  0  0  0  0  2  0  0  0  0  0  0
  134.0420  133.4410  147.7930 C   0  0  0  0  0  0  0  0  0  0  0  0
  133.9650  133.0740  149.1430 C   0  0  0  0  0  3  0  0  0  0  0  0
  133.4830  133.9730  150.1100 C   0  0  0  0  0  0  0  0  0  0  0  0
  133.0690  135.2510  149.7080 C   0  0  0  0  0  3  0  0  0  0  0  0
  133.1450  135.6300  148.3670 C   0  0  0  0  0  3  0  0  0  0  0  0
  133.6280  134.7270  147.4210 C   0  0  0  0  0  0  0  0  0  0  0  0
  135.9040  132.4160  146.7150 C   0  0  0  0  0  1  0  0  0  0  0  0
  134.5030  132.6360  146.7840 O   0  0  0  0  0  0  0  0  0  0  0  0
  133.7040  135.1030  146.1050 O   0  0  0  0  0  0  0  0  0  0  0  0
  134.1670  134.5670  145.4910 H   0  0  0  0  0  0  0  0  0  0  0  0
  1  2  1  0  0  0  0
  2  3  2  0  0  0  0
  2  4  1  0  0  0  0
  4  7  1  0  0  0  0
  5  1  1  0  0  0  0
  6  4  1  0  0  0  0
  7 12  2  0  0  0  0
  7  8  1  0  0  0  0
  8  9  2  0  0  0  0
  9 10  1  0  0  0  0
 10 13  1  0  0  0  0
 11 10  2  0  0  0  0
 12 11  1  0  0  0  0
 13 15  2  0  0  0  0
 13 14  2  0  0  0  0
 16  1  1  0  0  0  0
 17 18  1  0  0  0  0
 18 19  2  0  0  0  0
 19 16  1  0  0  0  0
 20 19  1  0  0  0  0
 21 20  2  0  0  0  0
 22 17  2  0  0  0  0
 22 21  1  0  0  0  0
 23 24  1  0  0  0  0
 24 17  1  0  0  0  0
 25 22  1  0  0  0  0
 26 25  1  0  0  0  0
M  END
>  <MODEL>
6

>  <REMARK>
 VINA RESULT:    -7.340      1.269      2.119
 INTER + INTRA:         -10.051
 INTER:                  -9.739
 INTRA:                  -0.312
 UNBOUND:                -0.350
  Name = CHEMBL4534595
  7 active torsions:
  status: ('A' for Active; 'I' for Inactive)
    1  A    between atoms: C_1  and  O_2
    2  A    between atoms: O_2  and  C_3
    3  A    between atoms: C_5  and  C_6
    4  A    between atoms: C_6  and  N_7
    5  A    between atoms: N_10  and  C_11
    6  A    between atoms: C_14  and  N_15
    7  A    between atoms: C_22  and  O_23
                            x       y       z     vdW  Elec       q    Type
                         _______ _______ _______ _____ _____    ______ ____

>  <TORSDO>
F 6

>  <SCORE>
-7.340

>  <RMSD_LB>
1.269

>  <RMSD_UB>
2.119

$$$$
CHEMBL4534595
 OpenBabel10172500083D

 26 27  0  0  0  0  0  0  0  0999 V2000
  143.0110  139.7160  154.3220 N   0  0  0  0  0  0  0  0  0  0  0  0
  142.0470  138.7280  154.2810 C   0  0  0  0  0  0  0  0  0  0  0  0
  142.3020  137.5990  153.8770 O   0  0  0  0  0  0  0  0  0  0  0  0
  140.8110  139.1870  154.6910 N   0  0  0  0  0  0  0  0  0  0  0  0
  142.8050  140.6280  154.6300 H   0  0  0  0  0  0  0  0  0  0  0  0
  140.7410  140.1310  154.9600 H   0  0  0  0  0  0  0  0  0  0  0  0
  139.6360  138.3990  154.7540 C   0  0  0  0  0  0  0  0  0  0  0  0
  138.8590  138.1130  153.6240 C   0  0  0  0  0  3  0  0  0  0  0  0
  137.6590  137.4080  153.7340 C   0  0  0  0  0  3  0  0  0  0  0  0
  137.2330  136.9660  154.9860 C   0  0  0  0  0  0  0  0  0  0  0  0
  138.0200  137.1970  156.1230 C   0  0  0  0  0  3  0  0  0  0  0  0
  139.2260  137.9040  155.9990 C   0  0  0  0  0  3  0  0  0  0  0  0
  135.9450  136.2710  155.1060 N   0  0  0  0  0  0  0  0  0  0  0  0
  135.0000  136.6800  154.4180 O   0  0  0  0  0  0  0  0  0  0  0  0
  135.8800  135.3150  155.8920 O   0  0  0  0  0  0  0  0  0  0  0  0
  144.3410  139.3410  153.8870 C   0  0  0  0  0  2  0  0  0  0  0  0
  146.4100  141.5570  151.5600 C   0  0  0  0  0  0  0  0  0  0  0  0
  145.9990  140.8260  152.6820 C   0  0  0  0  0  3  0  0  0  0  0  0
  144.8010  140.0900  152.6660 C   0  0  0  0  0  0  0  0  0  0  0  0
  144.0170  140.0900  151.5030 C   0  0  0  0  0  3  0  0  0  0  0  0
  144.4130  140.8180  150.3810 C   0  0  0  0  0  3  0  0  0  0  0  0
  145.6030  141.5440  150.4150 C   0  0  0  0  0  0  0  0  0  0  0  0
  148.6710  141.8690  152.2480 C   0  0  0  0  0  1  0  0  0  0  0  0
  147.5560  142.3060  151.4860 O   0  0  0  0  0  0  0  0  0  0  0  0
  145.9880  142.2610  149.3120 O   0  0  0  0  0  0  0  0  0  0  0  0
  146.7330  142.8270  149.3590 H   0  0  0  0  0  0  0  0  0  0  0  0
  1  5  1  0  0  0  0
  2  1  1  0  0  0  0
  2  4  1  0  0  0  0
  3  2  2  0  0  0  0
  4  7  1  0  0  0  0
  4  6  1  0  0  0  0
  7 12  1  0  0  0  0
  8  9  1  0  0  0  0
  8  7  2  0  0  0  0
  9 10  2  0  0  0  0
 10 13  1  0  0  0  0
 10 11  1  0  0  0  0
 12 11  2  0  0  0  0
 13 15  2  0  0  0  0
 14 13  2  0  0  0  0
 16  1  1  0  0  0  0
 17 18  1  0  0  0  0
 19 18  2  0  0  0  0
 19 16  1  0  0  0  0
 20 19  1  0  0  0  0
 21 22  1  0  0  0  0
 21 20  2  0  0  0  0
 22 17  2  0  0  0  0
 24 17  1  0  0  0  0
 24 23  1  0  0  0  0
 25 26  1  0  0  0  0
 25 22  1  0  0  0  0
M  END
>  <MODEL>
7

>  <REMARK>
 VINA RESULT:    -7.270      8.040     10.708
 INTER + INTRA:          -9.958
 INTER:                  -9.480
 INTRA:                  -0.479
 UNBOUND:                -0.350
  Name = CHEMBL4534595
  7 active torsions:
  status: ('A' for Active; 'I' for Inactive)
    1  A    between atoms: C_1  and  O_2
    2  A    between atoms: O_2  and  C_3
    3  A    between atoms: C_5  and  C_6
    4  A    between atoms: C_6  and  N_7
    5  A    between atoms: N_10  and  C_11
    6  A    between atoms: C_14  and  N_15
    7  A    between atoms: C_22  and  O_23
                            x       y       z     vdW  Elec       q    Type
                         _______ _______ _______ _____ _____    ______ ____

>  <TORSDO>
F 6

>  <SCORE>
-7.270

>  <RMSD_LB>
8.040

>  <RMSD_UB>
10.708

$$$$
CHEMBL4534595
 OpenBabel10172500083D

 26 27  0  0  0  0  0  0  0  0999 V2000
  142.3600  139.2820  151.3030 N   0  0  0  0  0  0  0  0  0  0  0  0
  143.7090  139.5110  151.4970 C   0  0  0  0  0  0  0  0  0  0  0  0
  144.4550  138.6300  151.9080 O   0  0  0  0  0  0  0  0  0  0  0  0
  144.0630  140.8170  151.2230 N   0  0  0  0  0  0  0  0  0  0  0  0
  141.7550  139.9920  150.9890 H   0  0  0  0  0  0  0  0  0  0  0  0
  143.3510  141.4300  150.9300 H   0  0  0  0  0  0  0  0  0  0  0  0
  145.3740  141.3390  151.3310 C   0  0  0  0  0  0  0  0  0  0  0  0
  146.1140  141.7550  150.2160 C   0  0  0  0  0  3  0  0  0  0  0  0
  147.4360  142.1820  150.3470 C   0  0  0  0  0  3  0  0  0  0  0  0
  148.0280  142.2120  151.6090 C   0  0  0  0  0  0  0  0  0  0  0  0
  147.2900  141.8500  152.7450 C   0  0  0  0  0  3  0  0  0  0  0  0
  145.9600  141.4250  152.6010 C   0  0  0  0  0  3  0  0  0  0  0  0
  149.4350  142.6120  151.7370 N   0  0  0  0  0  0  0  0  0  0  0  0
  149.9760  143.1480  150.7600 O   0  0  0  0  0  0  0  0  0  0  0  0
  150.0000  142.3870  152.8180 O   0  0  0  0  0  0  0  0  0  0  0  0
  141.8830  137.9450  151.5880 C   0  0  0  0  0  2  0  0  0  0  0  0
  139.4110  138.1710  154.4930 C   0  0  0  0  0  0  0  0  0  0  0  0
  140.5960  138.2270  153.7490 C   0  0  0  0  0  3  0  0  0  0  0  0
  140.6010  137.9250  152.3750 C   0  0  0  0  0  0  0  0  0  0  0  0
  139.3960  137.5720  151.7500 C   0  0  0  0  0  3  0  0  0  0  0  0
  138.2110  137.5080  152.4820 C   0  0  0  0  0  3  0  0  0  0  0  0
  138.2230  137.8070  153.8440 C   0  0  0  0  0  0  0  0  0  0  0  0
  139.7000  137.4140  156.7350 C   0  0  0  0  0  1  0  0  0  0  0  0
  139.3100  138.4400  155.8340 O   0  0  0  0  0  0  0  0  0  0  0  0
  137.0580  137.7410  154.5610 O   0  0  0  0  0  0  0  0  0  0  0  0
  136.2370  137.8980  154.1370 H   0  0  0  0  0  0  0  0  0  0  0  0
  1  2  1  0  0  0  0
  1 16  1  0  0  0  0
  2  3  2  0  0  0  0
  4  7  1  0  0  0  0
  4  2  1  0  0  0  0
  5  1  1  0  0  0  0
  6  4  1  0  0  0  0
  7 12  1  0  0  0  0
  8  9  1  0  0  0  0
  8  7  2  0  0  0  0
  9 10  2  0  0  0  0
 10 13  1  0  0  0  0
 10 11  1  0  0  0  0
 12 11  2  0  0  0  0
 13 15  2  0  0  0  0
 14 13  2  0  0  0  0
 16 19  1  0  0  0  0
 17 24  1  0  0  0  0
 18 17  2  0  0  0  0
 19 18  1  0  0  0  0
 20 19  2  0  0  0  0
 20 21  1  0  0  0  0
 21 22  2  0  0  0  0
 22 17  1  0  0  0  0
 22 25  1  0  0  0  0
 24 23  1  0  0  0  0
 26 25  1  0  0  0  0
M  END
>  <MODEL>
8

>  <REMARK>
 VINA RESULT:    -7.161      9.616     11.802
 INTER + INTRA:          -9.813
 INTER:                  -9.463
 INTRA:                  -0.350
 UNBOUND:                -0.350
  Name = CHEMBL4534595
  7 active torsions:
  status: ('A' for Active; 'I' for Inactive)
    1  A    between atoms: C_1  and  O_2
    2  A    between atoms: O_2  and  C_3
    3  A    between atoms: C_5  and  C_6
    4  A    between atoms: C_6  and  N_7
    5  A    between atoms: N_10  and  C_11
    6  A    between atoms: C_14  and  N_15
    7  A    between atoms: C_22  and  O_23
                            x       y       z     vdW  Elec       q    Type
                         _______ _______ _______ _____ _____    ______ ____

>  <TORSDO>
F 6

>  <SCORE>
-7.161

>  <RMSD_LB>
9.616

>  <RMSD_UB>
11.802

$$$$
CHEMBL4534595
 OpenBabel10172500083D

 26 27  0  0  0  0  0  0  0  0999 V2000
  135.3430  134.4750  154.1250 N   0  0  0  0  0  0  0  0  0  0  0  0
  134.7100  134.6060  152.9040 C   0  0  0  0  0  0  0  0  0  0  0  0
  133.6330  135.1800  152.7990 O   0  0  0  0  0  0  0  0  0  0  0  0
  135.4060  133.9860  151.8850 N   0  0  0  0  0  0  0  0  0  0  0  0
  136.2010  134.0010  154.2150 H   0  0  0  0  0  0  0  0  0  0  0  0
  136.2470  133.5310  152.1190 H   0  0  0  0  0  0  0  0  0  0  0  0
  134.9990  133.9560  150.5300 C   0  0  0  0  0  0  0  0  0  0  0  0
  134.1180  132.9890  150.0290 C   0  0  0  0  0  3  0  0  0  0  0  0
  133.8060  132.9340  148.6690 C   0  0  0  0  0  3  0  0  0  0  0  0
  134.3660  133.8650  147.7960 C   0  0  0  0  0  0  0  0  0  0  0  0
  135.2110  134.8730  148.2830 C   0  0  0  0  0  3  0  0  0  0  0  0
  135.5140  134.9200  149.6530 C   0  0  0  0  0  3  0  0  0  0  0  0
  134.0780  133.7720  146.3590 N   0  0  0  0  0  0  0  0  0  0  0  0
  134.4210  134.7190  145.6380 O   0  0  0  0  0  0  0  0  0  0  0  0
  133.5040  132.7510  145.9530 O   0  0  0  0  0  0  0  0  0  0  0  0
  134.6800  135.0730  155.2650 C   0  0  0  0  0  2  0  0  0  0  0  0
  136.5590  136.2840  158.3650 C   0  0  0  0  0  0  0  0  0  0  0  0
  135.7230  135.5390  157.5240 C   0  0  0  0  0  3  0  0  0  0  0  0
  135.6120  135.8480  156.1570 C   0  0  0  0  0  0  0  0  0  0  0  0
  136.3570  136.9160  155.6370 C   0  0  0  0  0  3  0  0  0  0  0  0
  137.1900  137.6680  156.4650 C   0  0  0  0  0  3  0  0  0  0  0  0
  137.2870  137.3500  157.8190 C   0  0  0  0  0  0  0  0  0  0  0  0
  135.5910  136.2370  160.5430 C   0  0  0  0  0  1  0  0  0  0  0  0
  136.7260  136.0610  159.7070 O   0  0  0  0  0  0  0  0  0  0  0  0
  138.1030  138.0930  158.6310 O   0  0  0  0  0  0  0  0  0  0  0  0
  137.7420  138.7770  159.1590 H   0  0  0  0  0  0  0  0  0  0  0  0
  1  5  1  0  0  0  0
  1 16  1  0  0  0  0
  2  1  1  0  0  0  0
  3  2  2  0  0  0  0
  4  6  1  0  0  0  0
  4  2  1  0  0  0  0
  7  4  1  0  0  0  0
  8  7  1  0  0  0  0
  9  8  2  0  0  0  0
 10 11  2  0  0  0  0
 10  9  1  0  0  0  0
 11 12  1  0  0  0  0
 12  7  2  0  0  0  0
 13 10  1  0  0  0  0
 14 13  2  0  0  0  0
 15 13  2  0  0  0  0
 16 19  1  0  0  0  0
 17 24  1  0  0  0  0
 18 17  2  0  0  0  0
 19 18  1  0  0  0  0
 20 19  2  0  0  0  0
 20 21  1  0  0  0  0
 21 22  2  0  0  0  0
 22 17  1  0  0  0  0
 22 25  1  0  0  0  0
 24 23  1  0  0  0  0
 25 26  1  0  0  0  0
M  END
>  <MODEL>
9

>  <REMARK>
 VINA RESULT:    -7.102      1.857      9.666
 INTER + INTRA:          -9.736
 INTER:                  -9.253
 INTRA:                  -0.483
 UNBOUND:                -0.350
  Name = CHEMBL4534595
  7 active torsions:
  status: ('A' for Active; 'I' for Inactive)
    1  A    between atoms: C_1  and  O_2
    2  A    between atoms: O_2  and  C_3
    3  A    between atoms: C_5  and  C_6
    4  A    between atoms: C_6  and  N_7
    5  A    between atoms: N_10  and  C_11
    6  A    between atoms: C_14  and  N_15
    7  A    between atoms: C_22  and  O_23
                            x       y       z     vdW  Elec       q    Type
                         _______ _______ _______ _____ _____    ______ ____

>  <TORSDO>
F 6

>  <SCORE>
-7.102

>  <RMSD_LB>
1.857

>  <RMSD_UB>
9.666

$$$$
