CHEMBL4577918
 OpenBabel10172500453D

 17 17  0  0  0  0  0  0  0  0999 V2000
  134.9180  135.0070  155.7610 C   0  0  0  0  0  0  0  0  0  0  0  0
  136.1980  135.5240  155.5360 C   0  0  0  0  0  3  0  0  0  0  0  0
  137.0830  135.7730  156.5960 C   0  0  0  0  0  0  0  0  0  0  0  0
  136.6740  135.4620  157.9010 C   0  0  0  0  0  3  0  0  0  0  0  0
  135.3990  134.9480  158.1410 C   0  0  0  0  0  3  0  0  0  0  0  0
  134.5290  134.7240  157.0740 C   0  0  0  0  0  0  0  0  0  0  0  0
  134.4040  133.8740  153.7290 C   0  0  0  0  0  1  0  0  0  0  0  0
  134.0000  134.7510  154.7740 O   0  0  0  0  0  0  0  0  0  0  0  0
  133.2790  134.2180  157.3100 O   0  0  0  0  0  0  0  0  0  0  0  0
  132.7440  134.5860  157.9850 H   0  0  0  0  0  0  0  0  0  0  0  0
  138.4740  136.3320  156.3770 C   0  0  0  0  0  2  0  0  0  0  0  0
  138.5890  137.8570  156.3250 C   0  0  0  0  0  2  0  0  0  0  0  0
  137.8210  138.5430  155.2140 C   0  0  0  0  0  0  0  0  0  0  0  0
  138.1740  138.2710  153.9280 N   0  0  0  0  0  0  0  0  0  0  0  0
  136.8710  139.2780  155.4440 O   0  0  0  0  0  0  0  0  0  0  0  0
  138.9390  137.6790  153.7440 H   0  0  0  0  0  0  0  0  0  0  0  0
  137.6650  138.6650  153.1840 H   0  0  0  0  0  0  0  0  0  0  0  0
  1  6  1  0  0  0  0
  2  1  2  0  0  0  0
  2  3  1  0  0  0  0
  3  4  2  0  0  0  0
  4  5  1  0  0  0  0
  6  9  1  0  0  0  0
  6  5  2  0  0  0  0
  7  8  1  0  0  0  0
  8  1  1  0  0  0  0
  9 10  1  0  0  0  0
 11  3  1  0  0  0  0
 12 11  1  0  0  0  0
 13 15  2  0  0  0  0
 13 12  1  0  0  0  0
 14 13  1  0  0  0  0
 16 14  1  0  0  0  0
 17 14  1  0  0  0  0
M  END
>  <MODEL>
1

>  <REMARK>
 VINA RESULT:    -5.851      0.000      0.000
 INTER + INTRA:          -7.673
 INTER:                  -7.430
 INTRA:                  -0.243
 UNBOUND:                -0.282
  Name = CHEMBL4577918
  6 active torsions:
  status: ('A' for Active; 'I' for Inactive)
    1  A    between atoms: C_1  and  O_2
    2  A    between atoms: O_2  and  C_3
    3  A    between atoms: C_5  and  C_6
    4  A    between atoms: C_6  and  C_7
    5  A    between atoms: C_7  and  C_8
    6  A    between atoms: C_13  and  O_14
                            x       y       z     vdW  Elec       q    Type
                         _______ _______ _______ _____ _____    ______ ____

>  <TORSDO>
F 5

>  <SCORE>
-5.851

>  <RMSD_LB>
0.000

>  <RMSD_UB>
0.000

$$$$
CHEMBL4577918
 OpenBabel10172500453D

 17 17  0  0  0  0  0  0  0  0999 V2000
  144.9180  141.1220  150.5610 C   0  0  0  0  0  0  0  0  0  0  0  0
  145.1840  141.3480  151.9160 C   0  0  0  0  0  3  0  0  0  0  0  0
  146.3910  141.9270  152.3380 C   0  0  0  0  0  0  0  0  0  0  0  0
  147.3280  142.3110  151.3690 C   0  0  0  0  0  3  0  0  0  0  0  0
  147.0780  142.0900  150.0140 C   0  0  0  0  0  3  0  0  0  0  0  0
  145.8790  141.4980  149.6170 C   0  0  0  0  0  0  0  0  0  0  0  0
  143.2960  139.3880  150.7520 C   0  0  0  0  0  1  0  0  0  0  0  0
  143.7670  140.5510  150.0810 O   0  0  0  0  0  0  0  0  0  0  0  0
  145.6340  141.2810  148.2880 O   0  0  0  0  0  0  0  0  0  0  0  0
  144.8770  140.7970  148.0240 H   0  0  0  0  0  0  0  0  0  0  0  0
  146.7000  142.1810  153.7990 C   0  0  0  0  0  2  0  0  0  0  0  0
  148.0570  141.6840  154.3000 C   0  0  0  0  0  2  0  0  0  0  0  0
  148.2630  140.1830  154.2790 C   0  0  0  0  0  0  0  0  0  0  0  0
  149.0510  139.6580  153.3010 N   0  0  0  0  0  0  0  0  0  0  0  0
  147.7920  139.4550  155.1400 O   0  0  0  0  0  0  0  0  0  0  0  0
  149.4300  140.2460  152.6080 H   0  0  0  0  0  0  0  0  0  0  0  0
  149.2420  138.6930  153.2880 H   0  0  0  0  0  0  0  0  0  0  0  0
  1  2  1  0  0  0  0
  2  3  2  0  0  0  0
  3 11  1  0  0  0  0
  4  3  1  0  0  0  0
  5  4  2  0  0  0  0
  6  5  1  0  0  0  0
  6  1  2  0  0  0  0
  8  1  1  0  0  0  0
  8  7  1  0  0  0  0
  9  6  1  0  0  0  0
 10  9  1  0  0  0  0
 11 12  1  0  0  0  0
 13 12  1  0  0  0  0
 13 15  2  0  0  0  0
 14 13  1  0  0  0  0
 16 14  1  0  0  0  0
 17 14  1  0  0  0  0
M  END
>  <MODEL>
2

>  <REMARK>
 VINA RESULT:    -5.513     10.402     12.662
 INTER + INTRA:          -7.245
 INTER:                  -6.905
 INTRA:                  -0.340
 UNBOUND:                -0.282
  Name = CHEMBL4577918
  6 active torsions:
  status: ('A' for Active; 'I' for Inactive)
    1  A    between atoms: C_1  and  O_2
    2  A    between atoms: O_2  and  C_3
    3  A    between atoms: C_5  and  C_6
    4  A    between atoms: C_6  and  C_7
    5  A    between atoms: C_7  and  C_8
    6  A    between atoms: C_13  and  O_14
                            x       y       z     vdW  Elec       q    Type
                         _______ _______ _______ _____ _____    ______ ____

>  <TORSDO>
F 5

>  <SCORE>
-5.513

>  <RMSD_LB>
10.402

>  <RMSD_UB>
12.662

$$$$
CHEMBL4577918
 OpenBabel10172500453D

 17 17  0  0  0  0  0  0  0  0999 V2000
  134.8410  134.7400  155.5630 C   0  0  0  0  0  0  0  0  0  0  0  0
  135.7150  135.7480  155.9860 C   0  0  0  0  0  3  0  0  0  0  0  0
  136.5310  136.4400  155.0780 C   0  0  0  0  0  0  0  0  0  0  0  0
  136.4350  136.1250  153.7150 C   0  0  0  0  0  3  0  0  0  0  0  0
  135.5710  135.1220  153.2760 C   0  0  0  0  0  3  0  0  0  0  0  0
  134.7810  134.4350  154.1990 C   0  0  0  0  0  0  0  0  0  0  0  0
  133.8080  134.5470  157.7000 C   0  0  0  0  0  1  0  0  0  0  0  0
  134.0260  134.0190  156.3960 O   0  0  0  0  0  0  0  0  0  0  0  0
  133.9320  133.4510  153.7690 O   0  0  0  0  0  0  0  0  0  0  0  0
  133.4140  133.5820  152.9990 H   0  0  0  0  0  0  0  0  0  0  0  0
  137.4830  137.5340  155.5140 C   0  0  0  0  0  2  0  0  0  0  0  0
  138.6060  137.1130  156.4640 C   0  0  0  0  0  2  0  0  0  0  0  0
  139.9450  137.7880  156.2500 C   0  0  0  0  0  0  0  0  0  0  0  0
  141.0280  137.2830  156.9000 N   0  0  0  0  0  0  0  0  0  0  0  0
  140.0790  138.7250  155.4760 O   0  0  0  0  0  0  0  0  0  0  0  0
  140.9190  136.5290  157.5250 H   0  0  0  0  0  0  0  0  0  0  0  0
  141.9200  137.6710  156.7470 H   0  0  0  0  0  0  0  0  0  0  0  0
  1  2  1  0  0  0  0
  1  8  1  0  0  0  0
  3 11  1  0  0  0  0
  3  2  2  0  0  0  0
  4  3  1  0  0  0  0
  5  4  2  0  0  0  0
  5  6  1  0  0  0  0
  6  1  2  0  0  0  0
  8  7  1  0  0  0  0
  9  6  1  0  0  0  0
 10  9  1  0  0  0  0
 11 12  1  0  0  0  0
 13 12  1  0  0  0  0
 13 14  1  0  0  0  0
 14 16  1  0  0  0  0
 15 13  2  0  0  0  0
 17 14  1  0  0  0  0
M  END
>  <MODEL>
3

>  <REMARK>
 VINA RESULT:    -5.503      1.835      2.995
 INTER + INTRA:          -7.233
 INTER:                  -7.050
 INTRA:                  -0.183
 UNBOUND:                -0.282
  Name = CHEMBL4577918
  6 active torsions:
  status: ('A' for Active; 'I' for Inactive)
    1  A    between atoms: C_1  and  O_2
    2  A    between atoms: O_2  and  C_3
    3  A    between atoms: C_5  and  C_6
    4  A    between atoms: C_6  and  C_7
    5  A    between atoms: C_7  and  C_8
    6  A    between atoms: C_13  and  O_14
                            x       y       z     vdW  Elec       q    Type
                         _______ _______ _______ _____ _____    ______ ____

>  <TORSDO>
F 5

>  <SCORE>
-5.503

>  <RMSD_LB>
1.835

>  <RMSD_UB>
2.995

$$$$
CHEMBL4577918
 OpenBabel10172500453D

 17 17  0  0  0  0  0  0  0  0999 V2000
  138.3240  137.5800  155.8390 C   0  0  0  0  0  0  0  0  0  0  0  0
  138.0260  136.8480  156.9930 C   0  0  0  0  0  3  0  0  0  0  0  0
  136.9710  135.9220  157.0210 C   0  0  0  0  0  0  0  0  0  0  0  0
  136.2290  135.7150  155.8510 C   0  0  0  0  0  3  0  0  0  0  0  0
  136.5120  136.4390  154.6920 C   0  0  0  0  0  3  0  0  0  0  0  0
  137.5540  137.3660  154.6920 C   0  0  0  0  0  0  0  0  0  0  0  0
  140.6630  138.0080  155.7000 C   0  0  0  0  0  1  0  0  0  0  0  0
  139.3310  138.5070  155.7470 O   0  0  0  0  0  0  0  0  0  0  0  0
  137.8330  138.0760  153.5550 O   0  0  0  0  0  0  0  0  0  0  0  0
  138.6420  137.9380  153.1030 H   0  0  0  0  0  0  0  0  0  0  0  0
  136.6310  135.1180  158.2590 C   0  0  0  0  0  2  0  0  0  0  0  0
  136.5760  135.8950  159.5760 C   0  0  0  0  0  2  0  0  0  0  0  0
  135.3640  136.7830  159.7730 C   0  0  0  0  0  0  0  0  0  0  0  0
  135.5480  138.1310  159.7530 N   0  0  0  0  0  0  0  0  0  0  0  0
  134.2380  136.3210  159.8900 O   0  0  0  0  0  0  0  0  0  0  0  0
  136.4550  138.5020  159.6590 H   0  0  0  0  0  0  0  0  0  0  0  0
  134.7750  138.7350  159.8320 H   0  0  0  0  0  0  0  0  0  0  0  0
  1  2  1  0  0  0  0
  2  3  2  0  0  0  0
  3 11  1  0  0  0  0
  4  3  1  0  0  0  0
  5  6  1  0  0  0  0
  5  4  2  0  0  0  0
  6  1  2  0  0  0  0
  7  8  1  0  0  0  0
  8  1  1  0  0  0  0
  9  6  1  0  0  0  0
 10  9  1  0  0  0  0
 11 12  1  0  0  0  0
 12 13  1  0  0  0  0
 13 15  2  0  0  0  0
 14 13  1  0  0  0  0
 14 17  1  0  0  0  0
 16 14  1  0  0  0  0
M  END
>  <MODEL>
4

>  <REMARK>
 VINA RESULT:    -5.439      2.800      5.026
 INTER + INTRA:          -7.152
 INTER:                  -6.834
 INTRA:                  -0.317
 UNBOUND:                -0.282
  Name = CHEMBL4577918
  6 active torsions:
  status: ('A' for Active; 'I' for Inactive)
    1  A    between atoms: C_1  and  O_2
    2  A    between atoms: O_2  and  C_3
    3  A    between atoms: C_5  and  C_6
    4  A    between atoms: C_6  and  C_7
    5  A    between atoms: C_7  and  C_8
    6  A    between atoms: C_13  and  O_14
                            x       y       z     vdW  Elec       q    Type
                         _______ _______ _______ _____ _____    ______ ____

>  <TORSDO>
F 5

>  <SCORE>
-5.439

>  <RMSD_LB>
2.800

>  <RMSD_UB>
5.026

$$$$
CHEMBL4577918
 OpenBabel10172500453D

 17 17  0  0  0  0  0  0  0  0999 V2000
  146.3210  139.8430  154.0750 C   0  0  0  0  0  0  0  0  0  0  0  0
  145.7150  140.5600  153.0390 C   0  0  0  0  0  3  0  0  0  0  0  0
  146.3080  141.7130  152.5010 C   0  0  0  0  0  0  0  0  0  0  0  0
  147.5500  142.1250  153.0020 C   0  0  0  0  0  3  0  0  0  0  0  0
  148.1670  141.4220  154.0380 C   0  0  0  0  0  3  0  0  0  0  0  0
  147.5520  140.2890  154.5690 C   0  0  0  0  0  0  0  0  0  0  0  0
  145.8320  137.5190  153.8860 C   0  0  0  0  0  1  0  0  0  0  0  0
  145.7920  138.7170  154.6530 O   0  0  0  0  0  0  0  0  0  0  0  0
  148.1570  139.5980  155.5840 O   0  0  0  0  0  0  0  0  0  0  0  0
  148.2840  140.0060  156.4180 H   0  0  0  0  0  0  0  0  0  0  0  0
  145.6690  142.5050  151.3790 C   0  0  0  0  0  2  0  0  0  0  0  0
  146.4850  142.6310  150.0910 C   0  0  0  0  0  2  0  0  0  0  0  0
  146.3890  141.4660  149.1270 C   0  0  0  0  0  0  0  0  0  0  0  0
  146.1780  141.7390  147.8110 N   0  0  0  0  0  0  0  0  0  0  0  0
  146.5510  140.3100  149.4930 O   0  0  0  0  0  0  0  0  0  0  0  0
  146.0470  142.6700  147.5170 H   0  0  0  0  0  0  0  0  0  0  0  0
  146.1570  141.0070  147.1530 H   0  0  0  0  0  0  0  0  0  0  0  0
  1  6  1  0  0  0  0
  1  8  1  0  0  0  0
  2  1  2  0  0  0  0
  3  4  2  0  0  0  0
  3  2  1  0  0  0  0
  4  5  1  0  0  0  0
  5  6  2  0  0  0  0
  6  9  1  0  0  0  0
  7  8  1  0  0  0  0
  9 10  1  0  0  0  0
 11  3  1  0  0  0  0
 12 11  1  0  0  0  0
 13 15  2  0  0  0  0
 13 12  1  0  0  0  0
 14 13  1  0  0  0  0
 16 14  1  0  0  0  0
 17 14  1  0  0  0  0
M  END
>  <MODEL>
5

>  <REMARK>
 VINA RESULT:    -5.437     10.565     12.491
 INTER + INTRA:          -7.150
 INTER:                  -6.893
 INTRA:                  -0.257
 UNBOUND:                -0.282
  Name = CHEMBL4577918
  6 active torsions:
  status: ('A' for Active; 'I' for Inactive)
    1  A    between atoms: C_1  and  O_2
    2  A    between atoms: O_2  and  C_3
    3  A    between atoms: C_5  and  C_6
    4  A    between atoms: C_6  and  C_7
    5  A    between atoms: C_7  and  C_8
    6  A    between atoms: C_13  and  O_14
                            x       y       z     vdW  Elec       q    Type
                         _______ _______ _______ _____ _____    ______ ____

>  <TORSDO>
F 5

>  <SCORE>
-5.437

>  <RMSD_LB>
10.565

>  <RMSD_UB>
12.491

$$$$
CHEMBL4577918
 OpenBabel10172500453D

 17 17  0  0  0  0  0  0  0  0999 V2000
  135.8910  135.9880  158.4690 C   0  0  0  0  0  0  0  0  0  0  0  0
  136.8730  135.9430  157.4730 C   0  0  0  0  0  3  0  0  0  0  0  0
  137.9480  136.8450  157.4630 C   0  0  0  0  0  0  0  0  0  0  0  0
  138.0440  137.7870  158.4960 C   0  0  0  0  0  3  0  0  0  0  0  0
  137.0720  137.8480  159.4950 C   0  0  0  0  0  3  0  0  0  0  0  0
  136.0030  136.9520  159.4770 C   0  0  0  0  0  0  0  0  0  0  0  0
  134.3610  134.5810  157.3060 C   0  0  0  0  0  1  0  0  0  0  0  0
  134.8110  135.1460  158.5320 O   0  0  0  0  0  0  0  0  0  0  0  0
  135.0490  137.0100  160.4570 O   0  0  0  0  0  0  0  0  0  0  0  0
  135.3020  137.1440  161.3500 H   0  0  0  0  0  0  0  0  0  0  0  0
  139.0220  136.8140  156.3950 C   0  0  0  0  0  2  0  0  0  0  0  0
  139.2960  138.1340  155.6730 C   0  0  0  0  0  2  0  0  0  0  0  0
  138.1940  138.6340  154.7620 C   0  0  0  0  0  0  0  0  0  0  0  0
  138.4110  138.6040  153.4190 N   0  0  0  0  0  0  0  0  0  0  0  0
  137.1130  139.0020  155.1980 O   0  0  0  0  0  0  0  0  0  0  0  0
  139.2810  138.3070  153.0680 H   0  0  0  0  0  0  0  0  0  0  0  0
  137.6970  138.8780  152.7980 H   0  0  0  0  0  0  0  0  0  0  0  0
  1  8  1  0  0  0  0
  1  6  1  0  0  0  0
  2  1  2  0  0  0  0
  3  2  1  0  0  0  0
  3  4  2  0  0  0  0
  4  5  1  0  0  0  0
  6  5  2  0  0  0  0
  6  9  1  0  0  0  0
  7  8  1  0  0  0  0
  9 10  1  0  0  0  0
 11  3  1  0  0  0  0
 12 11  1  0  0  0  0
 13 15  2  0  0  0  0
 13 12  1  0  0  0  0
 14 13  1  0  0  0  0
 16 14  1  0  0  0  0
 17 14  1  0  0  0  0
M  END
>  <MODEL>
6

>  <REMARK>
 VINA RESULT:    -5.307      1.892      2.692
 INTER + INTRA:          -6.985
 INTER:                  -6.758
 INTRA:                  -0.227
 UNBOUND:                -0.282
  Name = CHEMBL4577918
  6 active torsions:
  status: ('A' for Active; 'I' for Inactive)
    1  A    between atoms: C_1  and  O_2
    2  A    between atoms: O_2  and  C_3
    3  A    between atoms: C_5  and  C_6
    4  A    between atoms: C_6  and  C_7
    5  A    between atoms: C_7  and  C_8
    6  A    between atoms: C_13  and  O_14
                            x       y       z     vdW  Elec       q    Type
                         _______ _______ _______ _____ _____    ______ ____

>  <TORSDO>
F 5

>  <SCORE>
-5.307

>  <RMSD_LB>
1.892

>  <RMSD_UB>
2.692

$$$$
CHEMBL4577918
 OpenBabel10172500453D

 17 17  0  0  0  0  0  0  0  0999 V2000
  136.4570  136.8450  158.4170 C   0  0  0  0  0  0  0  0  0  0  0  0
  136.1150  136.1260  157.2670 C   0  0  0  0  0  3  0  0  0  0  0  0
  136.8750  136.2210  156.0910 C   0  0  0  0  0  0  0  0  0  0  0  0
  138.0160  137.0350  156.0930 C   0  0  0  0  0  3  0  0  0  0  0  0
  138.3690  137.7610  157.2310 C   0  0  0  0  0  3  0  0  0  0  0  0
  137.5900  137.6640  158.3840 C   0  0  0  0  0  0  0  0  0  0  0  0
  134.6290  135.9370  159.6450 C   0  0  0  0  0  1  0  0  0  0  0  0
  135.7540  136.8070  159.5940 O   0  0  0  0  0  0  0  0  0  0  0  0
  137.9370  138.3760  159.5010 O   0  0  0  0  0  0  0  0  0  0  0  0
  138.8350  138.4330  159.7600 H   0  0  0  0  0  0  0  0  0  0  0  0
  136.5230  135.4510  154.8350 C   0  0  0  0  0  2  0  0  0  0  0  0
  135.2930  135.9350  154.0670 C   0  0  0  0  0  2  0  0  0  0  0  0
  134.0530  135.0720  154.1850 C   0  0  0  0  0  0  0  0  0  0  0  0
  133.9080  134.0370  153.3140 N   0  0  0  0  0  0  0  0  0  0  0  0
  133.2250  135.2490  155.0680 O   0  0  0  0  0  0  0  0  0  0  0  0
  134.5750  133.8960  152.6040 H   0  0  0  0  0  0  0  0  0  0  0  0
  133.1380  133.4300  153.3950 H   0  0  0  0  0  0  0  0  0  0  0  0
  1  8  1  0  0  0  0
  2  1  2  0  0  0  0
  3  4  2  0  0  0  0
  3  2  1  0  0  0  0
  4  5  1  0  0  0  0
  5  6  2  0  0  0  0
  6  1  1  0  0  0  0
  6  9  1  0  0  0  0
  8  7  1  0  0  0  0
  9 10  1  0  0  0  0
 11  3  1  0  0  0  0
 12 13  1  0  0  0  0
 12 11  1  0  0  0  0
 13 15  2  0  0  0  0
 14 17  1  0  0  0  0
 14 13  1  0  0  0  0
 16 14  1  0  0  0  0
M  END
>  <MODEL>
7

>  <REMARK>
 VINA RESULT:    -5.300      2.592      4.592
 INTER + INTRA:          -6.976
 INTER:                  -6.714
 INTRA:                  -0.263
 UNBOUND:                -0.282
  Name = CHEMBL4577918
  6 active torsions:
  status: ('A' for Active; 'I' for Inactive)
    1  A    between atoms: C_1  and  O_2
    2  A    between atoms: O_2  and  C_3
    3  A    between atoms: C_5  and  C_6
    4  A    between atoms: C_6  and  C_7
    5  A    between atoms: C_7  and  C_8
    6  A    between atoms: C_13  and  O_14
                            x       y       z     vdW  Elec       q    Type
                         _______ _______ _______ _____ _____    ______ ____

>  <TORSDO>
F 5

>  <SCORE>
-5.300

>  <RMSD_LB>
2.592

>  <RMSD_UB>
4.592

$$$$
CHEMBL4577918
 OpenBabel10172500453D

 17 17  0  0  0  0  0  0  0  0999 V2000
  137.6680  137.7820  155.6020 C   0  0  0  0  0  0  0  0  0  0  0  0
  137.1670  136.9610  154.5860 C   0  0  0  0  0  3  0  0  0  0  0  0
  136.3850  135.8320  154.8740 C   0  0  0  0  0  0  0  0  0  0  0  0
  136.0810  135.5500  156.2130 C   0  0  0  0  0  3  0  0  0  0  0  0
  136.5750  136.3570  157.2390 C   0  0  0  0  0  3  0  0  0  0  0  0
  137.3640  137.4650  156.9300 C   0  0  0  0  0  0  0  0  0  0  0  0
  139.2990  138.8730  154.2530 C   0  0  0  0  0  1  0  0  0  0  0  0
  138.4450  138.8910  155.3910 O   0  0  0  0  0  0  0  0  0  0  0  0
  137.8470  138.2580  157.9360 O   0  0  0  0  0  0  0  0  0  0  0  0
  138.7700  138.3180  158.0830 H   0  0  0  0  0  0  0  0  0  0  0  0
  135.8330  134.9290  153.7900 C   0  0  0  0  0  2  0  0  0  0  0  0
  134.3090  134.8270  153.7070 C   0  0  0  0  0  2  0  0  0  0  0  0
  133.6780  135.3430  152.4300 C   0  0  0  0  0  0  0  0  0  0  0  0
  132.8380  134.5150  151.7510 N   0  0  0  0  0  0  0  0  0  0  0  0
  133.8580  136.4870  152.0370 O   0  0  0  0  0  0  0  0  0  0  0  0
  132.6940  133.5940  152.0680 H   0  0  0  0  0  0  0  0  0  0  0  0
  132.3760  134.8370  150.9440 H   0  0  0  0  0  0  0  0  0  0  0  0
  1  6  1  0  0  0  0
  2  3  1  0  0  0  0
  2  1  2  0  0  0  0
  3  4  2  0  0  0  0
  4  5  1  0  0  0  0
  6  5  2  0  0  0  0
  6  9  1  0  0  0  0
  7  8  1  0  0  0  0
  8  1  1  0  0  0  0
  9 10  1  0  0  0  0
 11  3  1  0  0  0  0
 12 11  1  0  0  0  0
 13 12  1  0  0  0  0
 14 16  1  0  0  0  0
 14 13  1  0  0  0  0
 15 13  2  0  0  0  0
 17 14  1  0  0  0  0
M  END
>  <MODEL>
8

>  <REMARK>
 VINA RESULT:    -5.274      2.831      4.859
 INTER + INTRA:          -6.944
 INTER:                  -6.705
 INTRA:                  -0.238
 UNBOUND:                -0.282
  Name = CHEMBL4577918
  6 active torsions:
  status: ('A' for Active; 'I' for Inactive)
    1  A    between atoms: C_1  and  O_2
    2  A    between atoms: O_2  and  C_3
    3  A    between atoms: C_5  and  C_6
    4  A    between atoms: C_6  and  C_7
    5  A    between atoms: C_7  and  C_8
    6  A    between atoms: C_13  and  O_14
                            x       y       z     vdW  Elec       q    Type
                         _______ _______ _______ _____ _____    ______ ____

>  <TORSDO>
F 5

>  <SCORE>
-5.274

>  <RMSD_LB>
2.831

>  <RMSD_UB>
4.859

$$$$
CHEMBL4577918
 OpenBabel10172500453D

 17 17  0  0  0  0  0  0  0  0999 V2000
  136.2280  136.0220  151.9570 C   0  0  0  0  0  0  0  0  0  0  0  0
  135.6310  135.1440  151.0460 C   0  0  0  0  0  3  0  0  0  0  0  0
  134.7340  134.1500  151.4670 C   0  0  0  0  0  0  0  0  0  0  0  0
  134.4150  134.0670  152.8290 C   0  0  0  0  0  3  0  0  0  0  0  0
  135.0040  134.9330  153.7510 C   0  0  0  0  0  3  0  0  0  0  0  0
  135.9060  135.9020  153.3130 C   0  0  0  0  0  0  0  0  0  0  0  0
  137.7570  136.8880  150.3480 C   0  0  0  0  0  1  0  0  0  0  0  0
  137.1200  137.0060  151.6160 O   0  0  0  0  0  0  0  0  0  0  0  0
  136.4840  136.7530  154.2170 O   0  0  0  0  0  0  0  0  0  0  0  0
  136.0000  137.0400  154.9660 H   0  0  0  0  0  0  0  0  0  0  0  0
  134.0750  133.1900  150.4980 C   0  0  0  0  0  2  0  0  0  0  0  0
  132.7420  133.6420  149.8990 C   0  0  0  0  0  2  0  0  0  0  0  0
  132.8180  134.3230  148.5480 C   0  0  0  0  0  0  0  0  0  0  0  0
  132.4260  133.6180  147.4520 N   0  0  0  0  0  0  0  0  0  0  0  0
  133.1630  135.4910  148.4330 O   0  0  0  0  0  0  0  0  0  0  0  0
  132.1500  132.6780  147.5460 H   0  0  0  0  0  0  0  0  0  0  0  0
  132.4200  134.0480  146.5670 H   0  0  0  0  0  0  0  0  0  0  0  0
  1  6  1  0  0  0  0
  2  3  1  0  0  0  0
  2  1  2  0  0  0  0
  3  4  2  0  0  0  0
  4  5  1  0  0  0  0
  6  5  2  0  0  0  0
  6  9  1  0  0  0  0
  7  8  1  0  0  0  0
  8  1  1  0  0  0  0
  9 10  1  0  0  0  0
 11  3  1  0  0  0  0
 12 11  1  0  0  0  0
 13 12  1  0  0  0  0
 14 16  1  0  0  0  0
 14 13  1  0  0  0  0
 15 13  2  0  0  0  0
 17 14  1  0  0  0  0
M  END
>  <MODEL>
9

>  <REMARK>
 VINA RESULT:    -5.058      4.509      6.777
 INTER + INTRA:          -6.672
 INTER:                  -6.389
 INTRA:                  -0.282
 UNBOUND:                -0.282
  Name = CHEMBL4577918
  6 active torsions:
  status: ('A' for Active; 'I' for Inactive)
    1  A    between atoms: C_1  and  O_2
    2  A    between atoms: O_2  and  C_3
    3  A    between atoms: C_5  and  C_6
    4  A    between atoms: C_6  and  C_7
    5  A    between atoms: C_7  and  C_8
    6  A    between atoms: C_13  and  O_14
                            x       y       z     vdW  Elec       q    Type
                         _______ _______ _______ _____ _____    ______ ____

>  <TORSDO>
F 5

>  <SCORE>
-5.058

>  <RMSD_LB>
4.509

>  <RMSD_UB>
6.777

$$$$
