CHEMBL3746390
 OpenBabel10172500173D

 21 22  0  0  0  0  0  0  0  0999 V2000
  136.0660  134.8070  151.0110 C   0  0  0  0  0  2  0  0  0  0  0  0
  133.1550  135.2670  148.5710 C   0  0  0  0  0  0  0  0  0  0  0  0
  134.2040  135.5400  149.4560 C   0  0  0  0  0  3  0  0  0  0  0  0
  134.9660  134.5000  150.0180 C   0  0  0  0  0  0  0  0  0  0  0  0
  134.6630  133.1730  149.6790 C   0  0  0  0  0  3  0  0  0  0  0  0
  133.6230  132.8900  148.7930 C   0  0  0  0  0  3  0  0  0  0  0  0
  132.8770  133.9340  148.2480 C   0  0  0  0  0  0  0  0  0  0  0  0
  132.9720  137.1360  147.1010 C   0  0  0  0  0  1  0  0  0  0  0  0
  132.3540  136.2140  147.9870 O   0  0  0  0  0  0  0  0  0  0  0  0
  131.8510  133.6540  147.3820 O   0  0  0  0  0  0  0  0  0  0  0  0
  131.8260  132.8310  146.9350 H   0  0  0  0  0  0  0  0  0  0  0  0
  135.5900  134.7990  152.4450 C   0  0  0  0  0  0  0  0  0  0  0  0
  134.9010  133.6970  152.9600 C   0  0  0  0  0  3  0  0  0  0  0  0
  134.4050  133.7230  154.2640 C   0  0  0  0  0  3  0  0  0  0  0  0
  134.5930  134.8500  155.0720 C   0  0  0  0  0  0  0  0  0  0  0  0
  135.3000  135.9550  154.5870 C   0  0  0  0  0  0  0  0  0  0  0  0
  135.7900  135.9160  153.2730 C   0  0  0  0  0  3  0  0  0  0  0  0
  134.0640  134.8320  156.3330 O   0  0  0  0  0  0  0  0  0  0  0  0
  134.0990  135.6010  156.8670 H   0  0  0  0  0  0  0  0  0  0  0  0
  135.5950  137.1270  155.2310 O   0  0  0  0  0  0  0  0  0  0  0  0
  136.8160  137.2080  155.9510 C   0  0  0  0  0  1  0  0  0  0  0  0
  1 12  1  0  0  0  0
  2  3  1  0  0  0  0
  3  4  2  0  0  0  0
  4  1  1  0  0  0  0
  5  4  1  0  0  0  0
  6  5  2  0  0  0  0
  7  2  2  0  0  0  0
  7  6  1  0  0  0  0
  8  9  1  0  0  0  0
  9  2  1  0  0  0  0
 10  7  1  0  0  0  0
 11 10  1  0  0  0  0
 12 13  2  0  0  0  0
 12 17  1  0  0  0  0
 13 14  1  0  0  0  0
 14 15  2  0  0  0  0
 15 18  1  0  0  0  0
 16 15  1  0  0  0  0
 16 20  1  0  0  0  0
 17 16  2  0  0  0  0
 18 19  1  0  0  0  0
 20 21  1  0  0  0  0
M  END
>  <MODEL>
1

>  <REMARK>
 VINA RESULT:    -6.721      0.000      0.000
 INTER + INTRA:          -9.060
 INTER:                  -8.575
 INTRA:                  -0.485
 UNBOUND:                -0.375
  Name = CHEMBL3746390
  8 active torsions:
  status: ('A' for Active; 'I' for Inactive)
    1  A    between atoms: C_1  and  O_2
    2  A    between atoms: O_2  and  C_3
    3  A    between atoms: C_5  and  C_6
    4  A    between atoms: C_6  and  C_7
    5  A    between atoms: C_10  and  O_11
    6  A    between atoms: C_12  and  O_13
    7  A    between atoms: O_13  and  C_14
    8  A    between atoms: C_18  and  O_19
                            x       y       z     vdW  Elec       q    Type
                         _______ _______ _______ _____ _____    ______ ____

>  <TORSDO>
F 6

>  <SCORE>
-6.721

>  <RMSD_LB>
0.000

>  <RMSD_UB>
0.000

$$$$
CHEMBL3746390
 OpenBabel10172500173D

 21 22  0  0  0  0  0  0  0  0999 V2000
  143.2380  137.4330  152.2420 C   0  0  0  0  0  2  0  0  0  0  0  0
  145.5290  140.0380  153.8540 C   0  0  0  0  0  0  0  0  0  0  0  0
  144.5010  139.4510  153.1080 C   0  0  0  0  0  3  0  0  0  0  0  0
  144.3230  138.0560  153.0920 C   0  0  0  0  0  0  0  0  0  0  0  0
  145.1930  137.2490  153.8390 C   0  0  0  0  0  3  0  0  0  0  0  0
  146.2180  137.8250  154.5930 C   0  0  0  0  0  3  0  0  0  0  0  0
  146.3810  139.2090  154.5950 C   0  0  0  0  0  0  0  0  0  0  0  0
  146.4120  141.9840  152.7970 C   0  0  0  0  0  1  0  0  0  0  0  0
  145.7840  141.3830  153.9190 O   0  0  0  0  0  0  0  0  0  0  0  0
  147.3920  139.7720  155.3290 O   0  0  0  0  0  0  0  0  0  0  0  0
  148.2740  139.4760  155.2160 H   0  0  0  0  0  0  0  0  0  0  0  0
  141.8440  137.7480  152.7340 C   0  0  0  0  0  0  0  0  0  0  0  0
  140.7830  137.8750  151.8330 C   0  0  0  0  0  3  0  0  0  0  0  0
  139.5120  138.2320  152.2860 C   0  0  0  0  0  3  0  0  0  0  0  0
  139.2850  138.4670  153.6470 C   0  0  0  0  0  0  0  0  0  0  0  0
  140.3260  138.3240  154.5710 C   0  0  0  0  0  0  0  0  0  0  0  0
  141.5990  137.9670  154.0990 C   0  0  0  0  0  3  0  0  0  0  0  0
  138.0280  138.8410  154.0350 O   0  0  0  0  0  0  0  0  0  0  0  0
  137.8540  139.7320  154.2650 H   0  0  0  0  0  0  0  0  0  0  0  0
  140.2900  138.4930  155.9300 O   0  0  0  0  0  0  0  0  0  0  0  0
  139.9050  137.3880  156.7330 C   0  0  0  0  0  1  0  0  0  0  0  0
  1 12  1  0  0  0  0
  1  4  1  0  0  0  0
  2  9  1  0  0  0  0
  2  7  1  0  0  0  0
  3  2  2  0  0  0  0
  4  3  1  0  0  0  0
  4  5  2  0  0  0  0
  5  6  1  0  0  0  0
  6  7  2  0  0  0  0
  7 10  1  0  0  0  0
  8  9  1  0  0  0  0
 11 10  1  0  0  0  0
 12 17  1  0  0  0  0
 13 14  1  0  0  0  0
 13 12  2  0  0  0  0
 14 15  2  0  0  0  0
 15 18  1  0  0  0  0
 15 16  1  0  0  0  0
 16 20  1  0  0  0  0
 17 16  2  0  0  0  0
 18 19  1  0  0  0  0
 20 21  1  0  0  0  0
M  END
>  <MODEL>
2

>  <REMARK>
 VINA RESULT:    -6.604      7.695     10.932
 INTER + INTRA:          -8.909
 INTER:                  -8.409
 INTRA:                  -0.500
 UNBOUND:                -0.375
  Name = CHEMBL3746390
  8 active torsions:
  status: ('A' for Active; 'I' for Inactive)
    1  A    between atoms: C_1  and  O_2
    2  A    between atoms: O_2  and  C_3
    3  A    between atoms: C_5  and  C_6
    4  A    between atoms: C_6  and  C_7
    5  A    between atoms: C_10  and  O_11
    6  A    between atoms: C_12  and  O_13
    7  A    between atoms: O_13  and  C_14
    8  A    between atoms: C_18  and  O_19
                            x       y       z     vdW  Elec       q    Type
                         _______ _______ _______ _____ _____    ______ ____

>  <TORSDO>
F 6

>  <SCORE>
-6.604

>  <RMSD_LB>
7.695

>  <RMSD_UB>
10.932

$$$$
CHEMBL3746390
 OpenBabel10172500173D

 21 22  0  0  0  0  0  0  0  0999 V2000
  133.6130  133.2540  151.3540 C   0  0  0  0  0  2  0  0  0  0  0  0
  135.3300  135.2590  154.1240 C   0  0  0  0  0  0  0  0  0  0  0  0
  134.5120  134.3370  153.4610 C   0  0  0  0  0  3  0  0  0  0  0  0
  134.5380  134.2220  152.0600 C   0  0  0  0  0  0  0  0  0  0  0  0
  135.4010  135.0470  151.3240 C   0  0  0  0  0  3  0  0  0  0  0  0
  136.2260  135.9660  151.9750 C   0  0  0  0  0  3  0  0  0  0  0  0
  136.1850  136.0680  153.3640 C   0  0  0  0  0  0  0  0  0  0  0  0
  134.4960  134.6490  156.2730 C   0  0  0  0  0  1  0  0  0  0  0  0
  135.3630  135.4480  155.4810 O   0  0  0  0  0  0  0  0  0  0  0  0
  136.9910  136.9750  154.0020 O   0  0  0  0  0  0  0  0  0  0  0  0
  136.7650  137.8850  154.0000 H   0  0  0  0  0  0  0  0  0  0  0  0
  133.6240  133.4130  149.8520 C   0  0  0  0  0  0  0  0  0  0  0  0
  134.2810  132.4810  149.0420 C   0  0  0  0  0  3  0  0  0  0  0  0
  134.3450  132.6680  147.6610 C   0  0  0  0  0  3  0  0  0  0  0  0
  133.7510  133.7900  147.0690 C   0  0  0  0  0  0  0  0  0  0  0  0
  133.0680  134.7230  147.8550 C   0  0  0  0  0  0  0  0  0  0  0  0
  133.0150  134.5220  149.2440 C   0  0  0  0  0  3  0  0  0  0  0  0
  133.8660  133.9380  145.7140 O   0  0  0  0  0  0  0  0  0  0  0  0
  133.7970  134.7890  145.3290 H   0  0  0  0  0  0  0  0  0  0  0  0
  132.4170  135.8600  147.4560 O   0  0  0  0  0  0  0  0  0  0  0  0
  132.6810  137.0660  148.1580 C   0  0  0  0  0  1  0  0  0  0  0  0
  1  4  1  0  0  0  0
  2  9  1  0  0  0  0
  3  2  1  0  0  0  0
  4  3  2  0  0  0  0
  5  6  2  0  0  0  0
  5  4  1  0  0  0  0
  6  7  1  0  0  0  0
  7 10  1  0  0  0  0
  7  2  2  0  0  0  0
  9  8  1  0  0  0  0
 11 10  1  0  0  0  0
 12  1  1  0  0  0  0
 13 12  2  0  0  0  0
 14 13  1  0  0  0  0
 15 14  2  0  0  0  0
 15 16  1  0  0  0  0
 16 17  2  0  0  0  0
 17 12  1  0  0  0  0
 18 15  1  0  0  0  0
 19 18  1  0  0  0  0
 20 16  1  0  0  0  0
 20 21  1  0  0  0  0
M  END
>  <MODEL>
3

>  <REMARK>
 VINA RESULT:    -6.581      1.360      6.736
 INTER + INTRA:          -8.879
 INTER:                  -8.553
 INTRA:                  -0.326
 UNBOUND:                -0.375
  Name = CHEMBL3746390
  8 active torsions:
  status: ('A' for Active; 'I' for Inactive)
    1  A    between atoms: C_1  and  O_2
    2  A    between atoms: O_2  and  C_3
    3  A    between atoms: C_5  and  C_6
    4  A    between atoms: C_6  and  C_7
    5  A    between atoms: C_10  and  O_11
    6  A    between atoms: C_12  and  O_13
    7  A    between atoms: O_13  and  C_14
    8  A    between atoms: C_18  and  O_19
                            x       y       z     vdW  Elec       q    Type
                         _______ _______ _______ _____ _____    ______ ____

>  <TORSDO>
F 6

>  <SCORE>
-6.581

>  <RMSD_LB>
1.360

>  <RMSD_UB>
6.736

$$$$
CHEMBL3746390
 OpenBabel10172500173D

 21 22  0  0  0  0  0  0  0  0999 V2000
  143.4150  137.4050  152.7210 C   0  0  0  0  0  2  0  0  0  0  0  0
  145.8270  140.0590  154.0530 C   0  0  0  0  0  0  0  0  0  0  0  0
  144.7350  139.4500  153.4250 C   0  0  0  0  0  3  0  0  0  0  0  0
  144.5750  138.0530  153.4460 C   0  0  0  0  0  0  0  0  0  0  0  0
  145.5280  137.2670  154.1100 C   0  0  0  0  0  3  0  0  0  0  0  0
  146.6180  137.8650  154.7450 C   0  0  0  0  0  3  0  0  0  0  0  0
  146.7620  139.2500  154.7120 C   0  0  0  0  0  0  0  0  0  0  0  0
  146.4170  142.0280  152.8450 C   0  0  0  0  0  1  0  0  0  0  0  0
  146.0700  141.4070  154.0740 O   0  0  0  0  0  0  0  0  0  0  0  0
  147.8360  139.8360  155.3300 O   0  0  0  0  0  0  0  0  0  0  0  0
  148.6000  140.0560  154.8330 H   0  0  0  0  0  0  0  0  0  0  0  0
  142.0720  137.9570  153.1390 C   0  0  0  0  0  0  0  0  0  0  0  0
  141.6970  137.9760  154.4860 C   0  0  0  0  0  3  0  0  0  0  0  0
  140.4300  138.4240  154.8590 C   0  0  0  0  0  3  0  0  0  0  0  0
  139.5190  138.8610  153.8900 C   0  0  0  0  0  0  0  0  0  0  0  0
  139.8790  138.8730  152.5380 C   0  0  0  0  0  0  0  0  0  0  0  0
  141.1570  138.4170  152.1790 C   0  0  0  0  0  3  0  0  0  0  0  0
  138.2810  139.2650  154.3070 O   0  0  0  0  0  0  0  0  0  0  0  0
  137.5240  138.7600  154.0860 H   0  0  0  0  0  0  0  0  0  0  0  0
  139.1350  139.2790  151.4620 O   0  0  0  0  0  0  0  0  0  0  0  0
  139.5850  140.4030  150.7210 C   0  0  0  0  0  1  0  0  0  0  0  0
  1 12  1  0  0  0  0
  1  4  1  0  0  0  0
  2  9  1  0  0  0  0
  2  7  1  0  0  0  0
  3  4  1  0  0  0  0
  3  2  2  0  0  0  0
  4  5  2  0  0  0  0
  5  6  1  0  0  0  0
  7  6  2  0  0  0  0
  7 10  1  0  0  0  0
  8  9  1  0  0  0  0
 11 10  1  0  0  0  0
 12 13  1  0  0  0  0
 13 14  2  0  0  0  0
 15 18  1  0  0  0  0
 15 14  1  0  0  0  0
 16 15  2  0  0  0  0
 17 16  1  0  0  0  0
 17 12  2  0  0  0  0
 19 18  1  0  0  0  0
 20 16  1  0  0  0  0
 21 20  1  0  0  0  0
M  END
>  <MODEL>
4

>  <REMARK>
 VINA RESULT:    -6.515      8.006     11.325
 INTER + INTRA:          -8.795
 INTER:                  -8.189
 INTRA:                  -0.606
 UNBOUND:                -0.375
  Name = CHEMBL3746390
  8 active torsions:
  status: ('A' for Active; 'I' for Inactive)
    1  A    between atoms: C_1  and  O_2
    2  A    between atoms: O_2  and  C_3
    3  A    between atoms: C_5  and  C_6
    4  A    between atoms: C_6  and  C_7
    5  A    between atoms: C_10  and  O_11
    6  A    between atoms: C_12  and  O_13
    7  A    between atoms: O_13  and  C_14
    8  A    between atoms: C_18  and  O_19
                            x       y       z     vdW  Elec       q    Type
                         _______ _______ _______ _____ _____    ______ ____

>  <TORSDO>
F 6

>  <SCORE>
-6.515

>  <RMSD_LB>
8.006

>  <RMSD_UB>
11.325

$$$$
CHEMBL3746390
 OpenBabel10172500173D

 21 22  0  0  0  0  0  0  0  0999 V2000
  143.2910  137.3470  152.0470 C   0  0  0  0  0  2  0  0  0  0  0  0
  140.3980  138.2420  154.3840 C   0  0  0  0  0  0  0  0  0  0  0  0
  141.6830  137.9680  153.9040 C   0  0  0  0  0  3  0  0  0  0  0  0
  141.9030  137.6890  152.5430 C   0  0  0  0  0  0  0  0  0  0  0  0
  140.8120  137.6870  151.6620 C   0  0  0  0  0  3  0  0  0  0  0  0
  139.5260  137.9650  152.1300 C   0  0  0  0  0  3  0  0  0  0  0  0
  139.3270  138.2370  153.4820 C   0  0  0  0  0  0  0  0  0  0  0  0
  140.2690  137.4670  156.6360 C   0  0  0  0  0  1  0  0  0  0  0  0
  140.0890  138.5130  155.6920 O   0  0  0  0  0  0  0  0  0  0  0  0
  138.0630  138.5030  153.9420 O   0  0  0  0  0  0  0  0  0  0  0  0
  137.9420  138.8590  154.8000 H   0  0  0  0  0  0  0  0  0  0  0  0
  144.3880  137.8870  152.9350 C   0  0  0  0  0  0  0  0  0  0  0  0
  145.1890  137.0200  153.6840 C   0  0  0  0  0  3  0  0  0  0  0  0
  146.1550  137.5260  154.5540 C   0  0  0  0  0  3  0  0  0  0  0  0
  146.3360  138.9080  154.6850 C   0  0  0  0  0  0  0  0  0  0  0  0
  145.5630  139.7950  153.9290 C   0  0  0  0  0  0  0  0  0  0  0  0
  144.5930  139.2700  153.0600 C   0  0  0  0  0  3  0  0  0  0  0  0
  147.2790  139.3520  155.5710 O   0  0  0  0  0  0  0  0  0  0  0  0
  147.5940  138.7820  156.2440 H   0  0  0  0  0  0  0  0  0  0  0  0
  145.6090  141.1640  153.9100 O   0  0  0  0  0  0  0  0  0  0  0  0
  146.5850  141.7910  153.0910 C   0  0  0  0  0  1  0  0  0  0  0  0
  1  4  1  0  0  0  0
  1 12  1  0  0  0  0
  2  9  1  0  0  0  0
  3  2  1  0  0  0  0
  4  3  2  0  0  0  0
  5  6  2  0  0  0  0
  5  4  1  0  0  0  0
  6  7  1  0  0  0  0
  7 10  1  0  0  0  0
  7  2  2  0  0  0  0
  9  8  1  0  0  0  0
 10 11  1  0  0  0  0
 12 17  2  0  0  0  0
 12 13  1  0  0  0  0
 13 14  2  0  0  0  0
 14 15  1  0  0  0  0
 15 18  1  0  0  0  0
 16 15  2  0  0  0  0
 17 16  1  0  0  0  0
 18 19  1  0  0  0  0
 20 16  1  0  0  0  0
 21 20  1  0  0  0  0
M  END
>  <MODEL>
5

>  <REMARK>
 VINA RESULT:    -6.468      7.676     10.402
 INTER + INTRA:          -8.734
 INTER:                  -8.330
 INTRA:                  -0.404
 UNBOUND:                -0.375
  Name = CHEMBL3746390
  8 active torsions:
  status: ('A' for Active; 'I' for Inactive)
    1  A    between atoms: C_1  and  O_2
    2  A    between atoms: O_2  and  C_3
    3  A    between atoms: C_5  and  C_6
    4  A    between atoms: C_6  and  C_7
    5  A    between atoms: C_10  and  O_11
    6  A    between atoms: C_12  and  O_13
    7  A    between atoms: O_13  and  C_14
    8  A    between atoms: C_18  and  O_19
                            x       y       z     vdW  Elec       q    Type
                         _______ _______ _______ _____ _____    ______ ____

>  <TORSDO>
F 6

>  <SCORE>
-6.468

>  <RMSD_LB>
7.676

>  <RMSD_UB>
10.402

$$$$
CHEMBL3746390
 OpenBabel10172500173D

 21 22  0  0  0  0  0  0  0  0999 V2000
  133.8160  133.2090  151.3210 C   0  0  0  0  0  2  0  0  0  0  0  0
  134.5940  132.7230  147.6060 C   0  0  0  0  0  0  0  0  0  0  0  0
  134.6180  132.5870  148.9990 C   0  0  0  0  0  3  0  0  0  0  0  0
  133.7460  133.3310  149.8140 C   0  0  0  0  0  0  0  0  0  0  0  0
  132.8430  134.2200  149.2130 C   0  0  0  0  0  3  0  0  0  0  0  0
  132.8070  134.3590  147.8240 C   0  0  0  0  0  3  0  0  0  0  0  0
  133.6800  133.6150  147.0330 C   0  0  0  0  0  0  0  0  0  0  0  0
  136.7670  132.4670  146.6570 C   0  0  0  0  0  1  0  0  0  0  0  0
  135.4120  132.0490  146.7370 O   0  0  0  0  0  0  0  0  0  0  0  0
  133.6480  133.7570  145.6690 O   0  0  0  0  0  0  0  0  0  0  0  0
  132.9930  134.2940  145.2700 H   0  0  0  0  0  0  0  0  0  0  0  0
  134.7380  134.2240  151.9560 C   0  0  0  0  0  0  0  0  0  0  0  0
  134.9190  134.2530  153.3420 C   0  0  0  0  0  3  0  0  0  0  0  0
  135.7190  135.2340  153.9280 C   0  0  0  0  0  3  0  0  0  0  0  0
  136.3510  136.1990  153.1370 C   0  0  0  0  0  0  0  0  0  0  0  0
  136.2050  136.1770  151.7460 C   0  0  0  0  0  0  0  0  0  0  0  0
  135.3950  135.1860  151.1710 C   0  0  0  0  0  3  0  0  0  0  0  0
  137.1030  137.1540  153.7650 O   0  0  0  0  0  0  0  0  0  0  0  0
  136.6910  137.9200  154.1140 H   0  0  0  0  0  0  0  0  0  0  0  0
  136.7550  137.0200  150.8170 O   0  0  0  0  0  0  0  0  0  0  0  0
  138.0700  136.7450  150.3580 C   0  0  0  0  0  1  0  0  0  0  0  0
  1 12  1  0  0  0  0
  2  3  1  0  0  0  0
  3  4  2  0  0  0  0
  4  1  1  0  0  0  0
  5  4  1  0  0  0  0
  6  5  2  0  0  0  0
  7  2  2  0  0  0  0
  7  6  1  0  0  0  0
  8  9  1  0  0  0  0
  9  2  1  0  0  0  0
 10  7  1  0  0  0  0
 11 10  1  0  0  0  0
 12 13  1  0  0  0  0
 13 14  2  0  0  0  0
 15 18  1  0  0  0  0
 15 14  1  0  0  0  0
 16 15  2  0  0  0  0
 17 16  1  0  0  0  0
 17 12  2  0  0  0  0
 18 19  1  0  0  0  0
 20 16  1  0  0  0  0
 21 20  1  0  0  0  0
M  END
>  <MODEL>
6

>  <REMARK>
 VINA RESULT:    -6.426      2.135      3.359
 INTER + INTRA:          -8.679
 INTER:                  -8.290
 INTRA:                  -0.389
 UNBOUND:                -0.375
  Name = CHEMBL3746390
  8 active torsions:
  status: ('A' for Active; 'I' for Inactive)
    1  A    between atoms: C_1  and  O_2
    2  A    between atoms: O_2  and  C_3
    3  A    between atoms: C_5  and  C_6
    4  A    between atoms: C_6  and  C_7
    5  A    between atoms: C_10  and  O_11
    6  A    between atoms: C_12  and  O_13
    7  A    between atoms: O_13  and  C_14
    8  A    between atoms: C_18  and  O_19
                            x       y       z     vdW  Elec       q    Type
                         _______ _______ _______ _____ _____    ______ ____

>  <TORSDO>
F 6

>  <SCORE>
-6.426

>  <RMSD_LB>
2.135

>  <RMSD_UB>
3.359

$$$$
CHEMBL3746390
 OpenBabel10172500173D

 21 22  0  0  0  0  0  0  0  0999 V2000
  146.5100  142.6300  149.8690 C   0  0  0  0  0  2  0  0  0  0  0  0
  146.6210  139.0890  148.4240 C   0  0  0  0  0  0  0  0  0  0  0  0
  146.5630  140.1550  149.3290 C   0  0  0  0  0  3  0  0  0  0  0  0
  146.5250  141.4870  148.8780 C   0  0  0  0  0  0  0  0  0  0  0  0
  146.5450  141.7400  147.4990 C   0  0  0  0  0  3  0  0  0  0  0  0
  146.5980  140.6840  146.5870 C   0  0  0  0  0  3  0  0  0  0  0  0
  146.6370  139.3710  147.0520 C   0  0  0  0  0  0  0  0  0  0  0  0
  146.6270  137.4510  150.1570 C   0  0  0  0  0  1  0  0  0  0  0  0
  146.6730  137.7650  148.7720 O   0  0  0  0  0  0  0  0  0  0  0  0
  146.6950  138.3350  146.1570 O   0  0  0  0  0  0  0  0  0  0  0  0
  147.5130  137.9140  145.9800 H   0  0  0  0  0  0  0  0  0  0  0  0
  147.1150  142.2650  151.2040 C   0  0  0  0  0  0  0  0  0  0  0  0
  148.5020  142.2580  151.3790 C   0  0  0  0  0  3  0  0  0  0  0  0
  149.0570  141.8550  152.5950 C   0  0  0  0  0  3  0  0  0  0  0  0
  148.2330  141.4560  153.6530 C   0  0  0  0  0  0  0  0  0  0  0  0
  146.8420  141.4770  153.5100 C   0  0  0  0  0  0  0  0  0  0  0  0
  146.2990  141.8820  152.2800 C   0  0  0  0  0  3  0  0  0  0  0  0
  148.8290  141.0460  154.8130 O   0  0  0  0  0  0  0  0  0  0  0  0
  149.2480  141.6710  155.3710 H   0  0  0  0  0  0  0  0  0  0  0  0
  145.8840  141.1420  154.4300 O   0  0  0  0  0  0  0  0  0  0  0  0
  145.3450  139.8300  154.3890 C   0  0  0  0  0  1  0  0  0  0  0  0
  1 12  1  0  0  0  0
  2  9  1  0  0  0  0
  2  3  1  0  0  0  0
  4  3  2  0  0  0  0
  4  1  1  0  0  0  0
  5  4  1  0  0  0  0
  6  7  1  0  0  0  0
  6  5  2  0  0  0  0
  7  2  2  0  0  0  0
  9  8  1  0  0  0  0
 10  7  1  0  0  0  0
 11 10  1  0  0  0  0
 12 13  2  0  0  0  0
 12 17  1  0  0  0  0
 13 14  1  0  0  0  0
 14 15  2  0  0  0  0
 15 18  1  0  0  0  0
 16 15  1  0  0  0  0
 16 20  1  0  0  0  0
 17 16  2  0  0  0  0
 18 19  1  0  0  0  0
 21 20  1  0  0  0  0
M  END
>  <MODEL>
7

>  <REMARK>
 VINA RESULT:    -6.388     12.546     14.120
 INTER + INTRA:          -8.630
 INTER:                  -8.176
 INTRA:                  -0.454
 UNBOUND:                -0.375
  Name = CHEMBL3746390
  8 active torsions:
  status: ('A' for Active; 'I' for Inactive)
    1  A    between atoms: C_1  and  O_2
    2  A    between atoms: O_2  and  C_3
    3  A    between atoms: C_5  and  C_6
    4  A    between atoms: C_6  and  C_7
    5  A    between atoms: C_10  and  O_11
    6  A    between atoms: C_12  and  O_13
    7  A    between atoms: O_13  and  C_14
    8  A    between atoms: C_18  and  O_19
                            x       y       z     vdW  Elec       q    Type
                         _______ _______ _______ _____ _____    ______ ____

>  <TORSDO>
F 6

>  <SCORE>
-6.388

>  <RMSD_LB>
12.546

>  <RMSD_UB>
14.120

$$$$
CHEMBL3746390
 OpenBabel10172500173D

 21 22  0  0  0  0  0  0  0  0999 V2000
  133.8910  133.1970  151.2410 C   0  0  0  0  0  2  0  0  0  0  0  0
  135.5820  135.2630  153.9810 C   0  0  0  0  0  0  0  0  0  0  0  0
  134.8160  134.2880  153.3320 C   0  0  0  0  0  3  0  0  0  0  0  0
  134.7620  134.2260  151.9280 C   0  0  0  0  0  0  0  0  0  0  0  0
  135.4910  135.1580  151.1760 C   0  0  0  0  0  3  0  0  0  0  0  0
  136.2630  136.1310  151.8140 C   0  0  0  0  0  3  0  0  0  0  0  0
  136.3030  136.1790  153.2060 C   0  0  0  0  0  0  0  0  0  0  0  0
  134.6960  134.7710  156.1400 C   0  0  0  0  0  1  0  0  0  0  0  0
  135.6830  135.4060  155.3410 O   0  0  0  0  0  0  0  0  0  0  0  0
  137.0560  137.1390  153.8310 O   0  0  0  0  0  0  0  0  0  0  0  0
  137.1540  137.9850  153.4400 H   0  0  0  0  0  0  0  0  0  0  0  0
  133.8590  133.3560  149.7380 C   0  0  0  0  0  0  0  0  0  0  0  0
  132.7820  133.9910  149.1130 C   0  0  0  0  0  3  0  0  0  0  0  0
  132.7240  134.0760  147.7210 C   0  0  0  0  0  3  0  0  0  0  0  0
  133.7450  133.5280  146.9350 C   0  0  0  0  0  0  0  0  0  0  0  0
  134.8440  132.9080  147.5380 C   0  0  0  0  0  0  0  0  0  0  0  0
  134.8860  132.8280  148.9390 C   0  0  0  0  0  3  0  0  0  0  0  0
  133.6260  133.6150  145.5750 O   0  0  0  0  0  0  0  0  0  0  0  0
  133.3590  134.4210  145.1790 H   0  0  0  0  0  0  0  0  0  0  0  0
  135.9350  132.3360  146.9400 O   0  0  0  0  0  0  0  0  0  0  0  0
  137.1640  133.0460  146.9660 C   0  0  0  0  0  1  0  0  0  0  0  0
  1  4  1  0  0  0  0
  2  9  1  0  0  0  0
  3  2  1  0  0  0  0
  4  3  2  0  0  0  0
  5  6  2  0  0  0  0
  5  4  1  0  0  0  0
  6  7  1  0  0  0  0
  7 10  1  0  0  0  0
  7  2  2  0  0  0  0
  9  8  1  0  0  0  0
 11 10  1  0  0  0  0
 12  1  1  0  0  0  0
 13 12  1  0  0  0  0
 14 13  2  0  0  0  0
 15 16  2  0  0  0  0
 15 14  1  0  0  0  0
 16 17  1  0  0  0  0
 17 12  2  0  0  0  0
 18 15  1  0  0  0  0
 19 18  1  0  0  0  0
 20 21  1  0  0  0  0
 20 16  1  0  0  0  0
M  END
>  <MODEL>
8

>  <REMARK>
 VINA RESULT:    -6.284      1.836      6.947
 INTER + INTRA:          -8.496
 INTER:                  -8.121
 INTRA:                  -0.375
 UNBOUND:                -0.375
  Name = CHEMBL3746390
  8 active torsions:
  status: ('A' for Active; 'I' for Inactive)
    1  A    between atoms: C_1  and  O_2
    2  A    between atoms: O_2  and  C_3
    3  A    between atoms: C_5  and  C_6
    4  A    between atoms: C_6  and  C_7
    5  A    between atoms: C_10  and  O_11
    6  A    between atoms: C_12  and  O_13
    7  A    between atoms: O_13  and  C_14
    8  A    between atoms: C_18  and  O_19
                            x       y       z     vdW  Elec       q    Type
                         _______ _______ _______ _____ _____    ______ ____

>  <TORSDO>
F 6

>  <SCORE>
-6.284

>  <RMSD_LB>
1.836

>  <RMSD_UB>
6.947

$$$$
CHEMBL3746390
 OpenBabel10172500173D

 21 22  0  0  0  0  0  0  0  0999 V2000
  143.3440  137.3950  152.6130 C   0  0  0  0  0  2  0  0  0  0  0  0
  139.6150  138.2520  152.5910 C   0  0  0  0  0  0  0  0  0  0  0  0
  140.8730  137.7780  152.2020 C   0  0  0  0  0  3  0  0  0  0  0  0
  141.9790  137.8670  153.0650 C   0  0  0  0  0  0  0  0  0  0  0  0
  141.8100  138.4400  154.3340 C   0  0  0  0  0  3  0  0  0  0  0  0
  140.5580  138.9110  154.7350 C   0  0  0  0  0  3  0  0  0  0  0  0
  139.4730  138.8160  153.8650 C   0  0  0  0  0  0  0  0  0  0  0  0
  138.6280  138.5590  150.4430 C   0  0  0  0  0  1  0  0  0  0  0  0
  138.4870  138.2170  151.8140 O   0  0  0  0  0  0  0  0  0  0  0  0
  138.2460  139.2850  154.2570 O   0  0  0  0  0  0  0  0  0  0  0  0
  137.7550  139.8450  153.6890 H   0  0  0  0  0  0  0  0  0  0  0  0
  144.4740  138.2340  153.1610 C   0  0  0  0  0  0  0  0  0  0  0  0
  145.3350  137.7210  154.1350 C   0  0  0  0  0  3  0  0  0  0  0  0
  146.3350  138.5230  154.6860 C   0  0  0  0  0  3  0  0  0  0  0  0
  146.4890  139.8500  154.2690 C   0  0  0  0  0  0  0  0  0  0  0  0
  145.6560  140.3790  153.2790 C   0  0  0  0  0  0  0  0  0  0  0  0
  144.6530  139.5610  152.7360 C   0  0  0  0  0  3  0  0  0  0  0  0
  147.4690  140.6000  154.8600 O   0  0  0  0  0  0  0  0  0  0  0  0
  147.7690  141.3860  154.4490 H   0  0  0  0  0  0  0  0  0  0  0  0
  145.6680  141.6370  152.7360 O   0  0  0  0  0  0  0  0  0  0  0  0
  146.6230  141.9210  151.7250 C   0  0  0  0  0  1  0  0  0  0  0  0
  1  4  1  0  0  0  0
  1 12  1  0  0  0  0
  2  7  1  0  0  0  0
  3  2  2  0  0  0  0
  3  4  1  0  0  0  0
  4  5  2  0  0  0  0
  5  6  1  0  0  0  0
  7 10  1  0  0  0  0
  7  6  2  0  0  0  0
  8  9  1  0  0  0  0
  9  2  1  0  0  0  0
 11 10  1  0  0  0  0
 12 13  1  0  0  0  0
 13 14  2  0  0  0  0
 15 14  1  0  0  0  0
 15 18  1  0  0  0  0
 16 15  2  0  0  0  0
 17 12  2  0  0  0  0
 17 16  1  0  0  0  0
 19 18  1  0  0  0  0
 20 16  1  0  0  0  0
 21 20  1  0  0  0  0
M  END
>  <MODEL>
9

>  <REMARK>
 VINA RESULT:    -6.221      7.904     10.379
 INTER + INTRA:          -8.414
 INTER:                  -7.890
 INTRA:                  -0.524
 UNBOUND:                -0.375
  Name = CHEMBL3746390
  8 active torsions:
  status: ('A' for Active; 'I' for Inactive)
    1  A    between atoms: C_1  and  O_2
    2  A    between atoms: O_2  and  C_3
    3  A    between atoms: C_5  and  C_6
    4  A    between atoms: C_6  and  C_7
    5  A    between atoms: C_10  and  O_11
    6  A    between atoms: C_12  and  O_13
    7  A    between atoms: O_13  and  C_14
    8  A    between atoms: C_18  and  O_19
                            x       y       z     vdW  Elec       q    Type
                         _______ _______ _______ _____ _____    ______ ____

>  <TORSDO>
F 6

>  <SCORE>
-6.221

>  <RMSD_LB>
7.904

>  <RMSD_UB>
10.379

$$$$
