CHEMBL76790
 OpenBabel10172500323D

 24 24  0  0  0  0  0  0  0  0999 V2000
  145.8500  138.5950  150.8270 C   0  0  0  0  0  0  0  0  0  0  0  0
  145.8480  138.6180  152.0560 O   0  0  0  0  0  0  0  0  0  0  0  0
  145.0840  137.7110  150.0980 N   0  0  0  0  0  0  0  0  0  0  0  0
  145.0890  137.7420  149.1140 H   0  0  0  0  0  0  0  0  0  0  0  0
  146.6610  139.5620  149.9870 C   0  0  0  0  0  2  0  0  0  0  0  0
  145.8650  140.8430  149.7350 C   0  0  0  0  0  2  0  0  0  0  0  0
  146.4520  142.0500  150.4630 C   0  0  0  0  0  2  0  0  0  0  0  0
  145.6200  142.3820  151.7030 C   0  0  0  0  0  2  0  0  0  0  0  0
  146.4430  142.2450  152.9820 C   0  0  0  0  0  2  0  0  0  0  0  0
  147.9150  141.9890  152.6630 C   0  0  0  0  0  2  0  0  0  0  0  0
  148.2140  140.2250  154.4300 C   0  0  0  0  0  1  0  0  0  0  0  0
  148.6860  141.5740  153.9140 C   0  0  0  0  0  2  0  0  0  0  0  0
  144.2720  136.7350  150.7980 C   0  0  0  0  0  2  0  0  0  0  0  0
  142.8950  136.5120  150.1770 C   0  0  0  0  0  2  0  0  0  0  0  0
  141.8080  137.0940  151.0470 C   0  0  0  0  0  0  0  0  0  0  0  0
  140.5020  137.2070  150.5550 C   0  0  0  0  0  3  0  0  0  0  0  0
  139.5050  137.7990  151.3300 C   0  0  0  0  0  3  0  0  0  0  0  0
  139.7960  138.2870  152.6070 C   0  0  0  0  0  0  0  0  0  0  0  0
  141.0920  138.1840  153.1230 C   0  0  0  0  0  0  0  0  0  0  0  0
  142.0870  137.5880  152.3320 C   0  0  0  0  0  3  0  0  0  0  0  0
  138.7800  138.8610  153.3200 O   0  0  0  0  0  0  0  0  0  0  0  0
  138.3750  139.6460  153.0090 H   0  0  0  0  0  0  0  0  0  0  0  0
  141.5530  138.6090  154.3430 O   0  0  0  0  0  0  0  0  0  0  0  0
  142.8620  139.1510  154.4100 C   0  0  0  0  0  1  0  0  0  0  0  0
  1  2  2  0  0  0  0
  3 13  1  0  0  0  0
  3  1  1  0  0  0  0
  4  3  1  0  0  0  0
  5  1  1  0  0  0  0
  6  5  1  0  0  0  0
  6  7  1  0  0  0  0
  7  8  1  0  0  0  0
  8  9  1  0  0  0  0
 10  9  1  0  0  0  0
 10 12  1  0  0  0  0
 12 11  1  0  0  0  0
 14 13  1  0  0  0  0
 14 15  1  0  0  0  0
 15 20  1  0  0  0  0
 16 15  2  0  0  0  0
 16 17  1  0  0  0  0
 17 18  2  0  0  0  0
 18 19  1  0  0  0  0
 18 21  1  0  0  0  0
 19 23  1  0  0  0  0
 20 19  2  0  0  0  0
 22 21  1  0  0  0  0
 23 24  1  0  0  0  0
M  END
>  <MODEL>
1

>  <REMARK>
 VINA RESULT:    -6.289      0.000      0.000
 INTER + INTRA:         -11.303
 INTER:                 -10.072
 INTRA:                  -1.232
 UNBOUND:                -0.786
  Name = CHEMBL76790
  14 active torsions:
  status: ('A' for Active; 'I' for Inactive)
    1  A    between atoms: C_1  and  C_2
    2  A    between atoms: C_2  and  C_3
    3  A    between atoms: C_3  and  C_4
    4  A    between atoms: C_4  and  C_5
    5  A    between atoms: C_5  and  C_6
    6  A    between atoms: C_6  and  C_7
    7  A    between atoms: C_7  and  C_8
    8  A    between atoms: C_8  and  C_9
    9  A    between atoms: N_11  and  C_12
   10  A    between atoms: C_12  and  C_13
   11  A    between atoms: C_13  and  C_14
   12  A    between atoms: C_17  and  O_18
   13  A    between atoms: C_19  and  O_20
   14  A    between atoms: O_20  and  C_21
                            x       y       z     vdW  Elec       q    Type
                         _______ _______ _______ _____ _____    ______ ____

>  <TORSDO>
F 12

>  <SCORE>
-6.289

>  <RMSD_LB>
0.000

>  <RMSD_UB>
0.000

$$$$
CHEMBL76790
 OpenBabel10172500323D

 24 24  0  0  0  0  0  0  0  0999 V2000
  144.0800  140.2090  150.3140 C   0  0  0  0  0  0  0  0  0  0  0  0
  142.9300  140.2790  149.8850 O   0  0  0  0  0  0  0  0  0  0  0  0
  144.7180  139.0070  150.5370 N   0  0  0  0  0  0  0  0  0  0  0  0
  145.6510  138.9900  150.8530 H   0  0  0  0  0  0  0  0  0  0  0  0
  144.9270  141.4320  150.6030 C   0  0  0  0  0  2  0  0  0  0  0  0
  145.3830  141.4300  152.0620 C   0  0  0  0  0  2  0  0  0  0  0  0
  146.5090  142.4280  152.3240 C   0  0  0  0  0  2  0  0  0  0  0  0
  147.8260  141.6920  152.5750 C   0  0  0  0  0  2  0  0  0  0  0  0
  148.1160  141.5590  154.0690 C   0  0  0  0  0  2  0  0  0  0  0  0
  148.3220  140.0970  154.4600 C   0  0  0  0  0  2  0  0  0  0  0  0
  146.8490  138.2150  153.6780 C   0  0  0  0  0  1  0  0  0  0  0  0
  146.9850  139.3810  154.6430 C   0  0  0  0  0  2  0  0  0  0  0  0
  144.0000  137.7700  150.3000 C   0  0  0  0  0  2  0  0  0  0  0  0
  143.6160  137.0210  151.5730 C   0  0  0  0  0  2  0  0  0  0  0  0
  142.2260  137.3980  152.0260 C   0  0  0  0  0  0  0  0  0  0  0  0
  141.1430  137.2640  151.1500 C   0  0  0  0  0  3  0  0  0  0  0  0
  139.8660  137.6680  151.5400 C   0  0  0  0  0  3  0  0  0  0  0  0
  139.6510  138.2110  152.8100 C   0  0  0  0  0  0  0  0  0  0  0  0
  140.7160  138.3540  153.7050 C   0  0  0  0  0  0  0  0  0  0  0  0
  141.9970  137.9450  153.3000 C   0  0  0  0  0  3  0  0  0  0  0  0
  138.3790  138.5930  153.1360 O   0  0  0  0  0  0  0  0  0  0  0  0
  137.7760  137.9650  153.4820 H   0  0  0  0  0  0  0  0  0  0  0  0
  140.6880  138.8650  154.9780 O   0  0  0  0  0  0  0  0  0  0  0  0
  140.4340  137.9720  156.0500 C   0  0  0  0  0  1  0  0  0  0  0  0
  1  3  1  0  0  0  0
  1  5  1  0  0  0  0
  2  1  2  0  0  0  0
  3  4  1  0  0  0  0
  5  6  1  0  0  0  0
  6  7  1  0  0  0  0
  7  8  1  0  0  0  0
  8  9  1  0  0  0  0
  9 10  1  0  0  0  0
 10 12  1  0  0  0  0
 11 12  1  0  0  0  0
 13  3  1  0  0  0  0
 13 14  1  0  0  0  0
 14 15  1  0  0  0  0
 15 20  1  0  0  0  0
 16 17  1  0  0  0  0
 16 15  2  0  0  0  0
 17 18  2  0  0  0  0
 18 21  1  0  0  0  0
 18 19  1  0  0  0  0
 19 23  1  0  0  0  0
 20 19  2  0  0  0  0
 21 22  1  0  0  0  0
 23 24  1  0  0  0  0
M  END
>  <MODEL>
2

>  <REMARK>
 VINA RESULT:    -6.139      1.508      2.046
 INTER + INTRA:         -11.053
 INTER:                  -9.693
 INTRA:                  -1.360
 UNBOUND:                -0.786
  Name = CHEMBL76790
  14 active torsions:
  status: ('A' for Active; 'I' for Inactive)
    1  A    between atoms: C_1  and  C_2
    2  A    between atoms: C_2  and  C_3
    3  A    between atoms: C_3  and  C_4
    4  A    between atoms: C_4  and  C_5
    5  A    between atoms: C_5  and  C_6
    6  A    between atoms: C_6  and  C_7
    7  A    between atoms: C_7  and  C_8
    8  A    between atoms: C_8  and  C_9
    9  A    between atoms: N_11  and  C_12
   10  A    between atoms: C_12  and  C_13
   11  A    between atoms: C_13  and  C_14
   12  A    between atoms: C_17  and  O_18
   13  A    between atoms: C_19  and  O_20
   14  A    between atoms: O_20  and  C_21
                            x       y       z     vdW  Elec       q    Type
                         _______ _______ _______ _____ _____    ______ ____

>  <TORSDO>
F 12

>  <SCORE>
-6.139

>  <RMSD_LB>
1.508

>  <RMSD_UB>
2.046

$$$$
CHEMBL76790
 OpenBabel10172500323D

 24 24  0  0  0  0  0  0  0  0999 V2000
  146.0260  137.0800  154.1630 C   0  0  0  0  0  0  0  0  0  0  0  0
  146.1200  136.1010  153.4260 O   0  0  0  0  0  0  0  0  0  0  0  0
  144.8170  137.6650  154.4710 N   0  0  0  0  0  0  0  0  0  0  0  0
  144.7770  138.4300  155.0900 H   0  0  0  0  0  0  0  0  0  0  0  0
  147.2230  137.7180  154.8410 C   0  0  0  0  0  2  0  0  0  0  0  0
  146.9570  139.2010  155.1020 C   0  0  0  0  0  2  0  0  0  0  0  0
  147.2200  140.0680  153.8730 C   0  0  0  0  0  2  0  0  0  0  0  0
  146.4530  141.3870  153.9770 C   0  0  0  0  0  2  0  0  0  0  0  0
  146.7730  142.3130  152.8050 C   0  0  0  0  0  2  0  0  0  0  0  0
  145.5720  142.4510  151.8700 C   0  0  0  0  0  2  0  0  0  0  0  0
  147.5120  142.5480  150.2730 C   0  0  0  0  0  1  0  0  0  0  0  0
  146.0050  142.4070  150.4060 C   0  0  0  0  0  2  0  0  0  0  0  0
  143.6050  137.1400  153.8750 C   0  0  0  0  0  2  0  0  0  0  0  0
  143.3030  137.6990  152.4860 C   0  0  0  0  0  2  0  0  0  0  0  0
  141.8170  137.7360  152.2280 C   0  0  0  0  0  0  0  0  0  0  0  0
  140.9350  138.0870  153.2560 C   0  0  0  0  0  3  0  0  0  0  0  0
  139.5560  138.0650  153.0440 C   0  0  0  0  0  3  0  0  0  0  0  0
  139.0380  137.6920  151.8000 C   0  0  0  0  0  0  0  0  0  0  0  0
  139.8970  137.3380  150.7550 C   0  0  0  0  0  0  0  0  0  0  0  0
  141.2820  137.3630  150.9830 C   0  0  0  0  0  3  0  0  0  0  0  0
  137.6790  137.6840  151.6500 O   0  0  0  0  0  0  0  0  0  0  0  0
  137.1330  137.3590  152.3390 H   0  0  0  0  0  0  0  0  0  0  0  0
  139.5650  136.9460  149.4830 O   0  0  0  0  0  0  0  0  0  0  0  0
  139.8550  137.8330  148.4140 C   0  0  0  0  0  1  0  0  0  0  0  0
  1  3  1  0  0  0  0
  1  5  1  0  0  0  0
  2  1  2  0  0  0  0
  3  4  1  0  0  0  0
  5  6  1  0  0  0  0
  7  8  1  0  0  0  0
  7  6  1  0  0  0  0
  9  8  1  0  0  0  0
 10  9  1  0  0  0  0
 11 12  1  0  0  0  0
 12 10  1  0  0  0  0
 13  3  1  0  0  0  0
 14 13  1  0  0  0  0
 15 14  1  0  0  0  0
 15 16  1  0  0  0  0
 17 16  2  0  0  0  0
 18 17  1  0  0  0  0
 19 20  1  0  0  0  0
 19 18  2  0  0  0  0
 20 15  2  0  0  0  0
 21 18  1  0  0  0  0
 21 22  1  0  0  0  0
 23 19  1  0  0  0  0
 24 23  1  0  0  0  0
M  END
>  <MODEL>
3

>  <REMARK>
 VINA RESULT:    -6.061      2.138      3.681
 INTER + INTRA:         -10.922
 INTER:                 -10.175
 INTRA:                  -0.747
 UNBOUND:                -0.786
  Name = CHEMBL76790
  14 active torsions:
  status: ('A' for Active; 'I' for Inactive)
    1  A    between atoms: C_1  and  C_2
    2  A    between atoms: C_2  and  C_3
    3  A    between atoms: C_3  and  C_4
    4  A    between atoms: C_4  and  C_5
    5  A    between atoms: C_5  and  C_6
    6  A    between atoms: C_6  and  C_7
    7  A    between atoms: C_7  and  C_8
    8  A    between atoms: C_8  and  C_9
    9  A    between atoms: N_11  and  C_12
   10  A    between atoms: C_12  and  C_13
   11  A    between atoms: C_13  and  C_14
   12  A    between atoms: C_17  and  O_18
   13  A    between atoms: C_19  and  O_20
   14  A    between atoms: O_20  and  C_21
                            x       y       z     vdW  Elec       q    Type
                         _______ _______ _______ _____ _____    ______ ____

>  <TORSDO>
F 12

>  <SCORE>
-6.061

>  <RMSD_LB>
2.138

>  <RMSD_UB>
3.681

$$$$
CHEMBL76790
 OpenBabel10172500323D

 24 24  0  0  0  0  0  0  0  0999 V2000
  146.4150  137.2880  154.4150 C   0  0  0  0  0  0  0  0  0  0  0  0
  146.3340  136.2930  153.6980 O   0  0  0  0  0  0  0  0  0  0  0  0
  145.3860  138.1950  154.5480 N   0  0  0  0  0  0  0  0  0  0  0  0
  145.4750  138.9650  155.1550 H   0  0  0  0  0  0  0  0  0  0  0  0
  147.6370  137.5990  155.2570 C   0  0  0  0  0  2  0  0  0  0  0  0
  147.8300  139.1110  155.3750 C   0  0  0  0  0  2  0  0  0  0  0  0
  148.2320  139.7540  154.0490 C   0  0  0  0  0  2  0  0  0  0  0  0
  147.9540  141.2570  154.0800 C   0  0  0  0  0  2  0  0  0  0  0  0
  147.5940  141.7870  152.6940 C   0  0  0  0  0  2  0  0  0  0  0  0
  146.1720  142.3470  152.6720 C   0  0  0  0  0  2  0  0  0  0  0  0
  146.8420  142.5540  150.2560 C   0  0  0  0  0  1  0  0  0  0  0  0
  145.6830  142.5560  151.2400 C   0  0  0  0  0  2  0  0  0  0  0  0
  144.1690  138.0010  153.7830 C   0  0  0  0  0  2  0  0  0  0  0  0
  143.7550  139.2150  152.9550 C   0  0  0  0  0  2  0  0  0  0  0  0
  144.3730  139.1680  151.5790 C   0  0  0  0  0  0  0  0  0  0  0  0
  145.7320  138.8670  151.4310 C   0  0  0  0  0  3  0  0  0  0  0  0
  146.3250  138.8810  150.1680 C   0  0  0  0  0  3  0  0  0  0  0  0
  145.5700  139.1960  149.0350 C   0  0  0  0  0  0  0  0  0  0  0  0
  144.2100  139.4980  149.1550 C   0  0  0  0  0  0  0  0  0  0  0  0
  143.6260  139.4820  150.4310 C   0  0  0  0  0  3  0  0  0  0  0  0
  146.2050  139.1980  147.8230 O   0  0  0  0  0  0  0  0  0  0  0  0
  147.0680  139.5560  147.7470 H   0  0  0  0  0  0  0  0  0  0  0  0
  143.3260  139.8310  148.1590 O   0  0  0  0  0  0  0  0  0  0  0  0
  142.6940  138.7760  147.4500 C   0  0  0  0  0  1  0  0  0  0  0  0
  1  3  1  0  0  0  0
  1  5  1  0  0  0  0
  2  1  2  0  0  0  0
  3  4  1  0  0  0  0
  5  6  1  0  0  0  0
  7  8  1  0  0  0  0
  7  6  1  0  0  0  0
  9  8  1  0  0  0  0
 10  9  1  0  0  0  0
 11 12  1  0  0  0  0
 12 10  1  0  0  0  0
 13  3  1  0  0  0  0
 14 13  1  0  0  0  0
 15 14  1  0  0  0  0
 16 15  1  0  0  0  0
 17 16  2  0  0  0  0
 18 19  2  0  0  0  0
 18 17  1  0  0  0  0
 19 20  1  0  0  0  0
 20 15  2  0  0  0  0
 21 18  1  0  0  0  0
 22 21  1  0  0  0  0
 23 19  1  0  0  0  0
 24 23  1  0  0  0  0
M  END
>  <MODEL>
4

>  <REMARK>
 VINA RESULT:    -6.055      3.062      5.103
 INTER + INTRA:         -10.912
 INTER:                  -9.035
 INTRA:                  -1.877
 UNBOUND:                -0.786
  Name = CHEMBL76790
  14 active torsions:
  status: ('A' for Active; 'I' for Inactive)
    1  A    between atoms: C_1  and  C_2
    2  A    between atoms: C_2  and  C_3
    3  A    between atoms: C_3  and  C_4
    4  A    between atoms: C_4  and  C_5
    5  A    between atoms: C_5  and  C_6
    6  A    between atoms: C_6  and  C_7
    7  A    between atoms: C_7  and  C_8
    8  A    between atoms: C_8  and  C_9
    9  A    between atoms: N_11  and  C_12
   10  A    between atoms: C_12  and  C_13
   11  A    between atoms: C_13  and  C_14
   12  A    between atoms: C_17  and  O_18
   13  A    between atoms: C_19  and  O_20
   14  A    between atoms: O_20  and  C_21
                            x       y       z     vdW  Elec       q    Type
                         _______ _______ _______ _____ _____    ______ ____

>  <TORSDO>
F 12

>  <SCORE>
-6.055

>  <RMSD_LB>
3.062

>  <RMSD_UB>
5.103

$$$$
CHEMBL76790
 OpenBabel10172500323D

 24 24  0  0  0  0  0  0  0  0999 V2000
  135.8360  135.8250  155.3690 C   0  0  0  0  0  0  0  0  0  0  0  0
  135.2270  135.0520  156.1060 O   0  0  0  0  0  0  0  0  0  0  0  0
  135.8250  135.7090  153.9960 N   0  0  0  0  0  0  0  0  0  0  0  0
  136.3010  136.3650  153.4370 H   0  0  0  0  0  0  0  0  0  0  0  0
  136.6270  137.0090  155.8920 C   0  0  0  0  0  2  0  0  0  0  0  0
  137.8280  136.5270  156.7060 C   0  0  0  0  0  2  0  0  0  0  0  0
  139.1140  137.2660  156.3440 C   0  0  0  0  0  2  0  0  0  0  0  0
  138.8980  138.1380  155.1060 C   0  0  0  0  0  2  0  0  0  0  0  0
  140.1020  138.0860  154.1680 C   0  0  0  0  0  2  0  0  0  0  0  0
  139.6700  138.2480  152.7120 C   0  0  0  0  0  2  0  0  0  0  0  0
  138.1180  137.0970  151.1020 C   0  0  0  0  0  1  0  0  0  0  0  0
  138.2620  137.7000  152.4890 C   0  0  0  0  0  2  0  0  0  0  0  0
  135.1050  134.6090  153.3850 C   0  0  0  0  0  2  0  0  0  0  0  0
  135.7580  134.0660  152.1170 C   0  0  0  0  0  2  0  0  0  0  0  0
  134.8710  134.2820  150.9150 C   0  0  0  0  0  0  0  0  0  0  0  0
  134.0860  133.2320  150.4250 C   0  0  0  0  0  3  0  0  0  0  0  0
  133.3100  133.4060  149.2790 C   0  0  0  0  0  3  0  0  0  0  0  0
  133.3050  134.6310  148.6060 C   0  0  0  0  0  0  0  0  0  0  0  0
  134.0790  135.6970  149.0760 C   0  0  0  0  0  0  0  0  0  0  0  0
  134.8570  135.5080  150.2290 C   0  0  0  0  0  3  0  0  0  0  0  0
  132.5280  134.7430  147.4860 O   0  0  0  0  0  0  0  0  0  0  0  0
  131.7750  134.1950  147.3810 H   0  0  0  0  0  0  0  0  0  0  0  0
  134.1960  136.9560  148.5430 O   0  0  0  0  0  0  0  0  0  0  0  0
  135.4380  137.3200  147.9610 C   0  0  0  0  0  1  0  0  0  0  0  0
  1  5  1  0  0  0  0
  1  2  2  0  0  0  0
  3  1  1  0  0  0  0
  4  3  1  0  0  0  0
  5  6  1  0  0  0  0
  7  6  1  0  0  0  0
  8  7  1  0  0  0  0
  9  8  1  0  0  0  0
 10  9  1  0  0  0  0
 11 12  1  0  0  0  0
 12 10  1  0  0  0  0
 13  3  1  0  0  0  0
 14 13  1  0  0  0  0
 15 14  1  0  0  0  0
 16 15  1  0  0  0  0
 17 16  2  0  0  0  0
 18 19  2  0  0  0  0
 18 17  1  0  0  0  0
 19 20  1  0  0  0  0
 20 15  2  0  0  0  0
 21 18  1  0  0  0  0
 22 21  1  0  0  0  0
 23 19  1  0  0  0  0
 24 23  1  0  0  0  0
M  END
>  <MODEL>
5

>  <REMARK>
 VINA RESULT:    -6.024      6.692      9.631
 INTER + INTRA:         -10.860
 INTER:                  -9.639
 INTRA:                  -1.222
 UNBOUND:                -0.786
  Name = CHEMBL76790
  14 active torsions:
  status: ('A' for Active; 'I' for Inactive)
    1  A    between atoms: C_1  and  C_2
    2  A    between atoms: C_2  and  C_3
    3  A    between atoms: C_3  and  C_4
    4  A    between atoms: C_4  and  C_5
    5  A    between atoms: C_5  and  C_6
    6  A    between atoms: C_6  and  C_7
    7  A    between atoms: C_7  and  C_8
    8  A    between atoms: C_8  and  C_9
    9  A    between atoms: N_11  and  C_12
   10  A    between atoms: C_12  and  C_13
   11  A    between atoms: C_13  and  C_14
   12  A    between atoms: C_17  and  O_18
   13  A    between atoms: C_19  and  O_20
   14  A    between atoms: O_20  and  C_21
                            x       y       z     vdW  Elec       q    Type
                         _______ _______ _______ _____ _____    ______ ____

>  <TORSDO>
F 12

>  <SCORE>
-6.024

>  <RMSD_LB>
6.692

>  <RMSD_UB>
9.631

$$$$
CHEMBL76790
 OpenBabel10172500323D

 24 24  0  0  0  0  0  0  0  0999 V2000
  146.2920  140.4890  148.8250 C   0  0  0  0  0  0  0  0  0  0  0  0
  147.0390  139.9280  149.6250 O   0  0  0  0  0  0  0  0  0  0  0  0
  146.0180  141.8380  148.8840 N   0  0  0  0  0  0  0  0  0  0  0  0
  145.4390  142.2590  148.2070 H   0  0  0  0  0  0  0  0  0  0  0  0
  145.6320  139.7640  147.6690 C   0  0  0  0  0  2  0  0  0  0  0  0
  144.5080  138.8620  148.1810 C   0  0  0  0  0  2  0  0  0  0  0  0
  144.9280  137.3960  148.2660 C   0  0  0  0  0  2  0  0  0  0  0  0
  145.0170  136.9500  149.7260 C   0  0  0  0  0  2  0  0  0  0  0  0
  144.2450  137.8930  150.6470 C   0  0  0  0  0  2  0  0  0  0  0  0
  143.2730  137.1180  151.5350 C   0  0  0  0  0  2  0  0  0  0  0  0
  140.8530  137.7140  151.8740 C   0  0  0  0  0  1  0  0  0  0  0  0
  141.8710  137.0950  150.9300 C   0  0  0  0  0  2  0  0  0  0  0  0
  146.5920  142.6310  149.9530 C   0  0  0  0  0  2  0  0  0  0  0  0
  145.7400  142.6790  151.2190 C   0  0  0  0  0  2  0  0  0  0  0  0
  146.4090  141.9400  152.3510 C   0  0  0  0  0  0  0  0  0  0  0  0
  147.7820  142.0960  152.5750 C   0  0  0  0  0  3  0  0  0  0  0  0
  148.4210  141.3700  153.5810 C   0  0  0  0  0  3  0  0  0  0  0  0
  147.6970  140.4780  154.3790 C   0  0  0  0  0  0  0  0  0  0  0  0
  146.3240  140.3060  154.1770 C   0  0  0  0  0  0  0  0  0  0  0  0
  145.6940  141.0410  153.1610 C   0  0  0  0  0  3  0  0  0  0  0  0
  148.3760  139.7910  155.3470 O   0  0  0  0  0  0  0  0  0  0  0  0
  148.4110  140.1250  156.2220 H   0  0  0  0  0  0  0  0  0  0  0  0
  145.4670  139.4790  154.8580 O   0  0  0  0  0  0  0  0  0  0  0  0
  144.1410  139.3460  154.3700 C   0  0  0  0  0  1  0  0  0  0  0  0
  1  3  1  0  0  0  0
  1  2  2  0  0  0  0
  3 13  1  0  0  0  0
  4  3  1  0  0  0  0
  5  6  1  0  0  0  0
  5  1  1  0  0  0  0
  6  7  1  0  0  0  0
  7  8  1  0  0  0  0
  8  9  1  0  0  0  0
  9 10  1  0  0  0  0
 12 10  1  0  0  0  0
 12 11  1  0  0  0  0
 13 14  1  0  0  0  0
 14 15  1  0  0  0  0
 15 16  2  0  0  0  0
 15 20  1  0  0  0  0
 16 17  1  0  0  0  0
 17 18  2  0  0  0  0
 18 21  1  0  0  0  0
 19 18  1  0  0  0  0
 19 23  1  0  0  0  0
 20 19  2  0  0  0  0
 21 22  1  0  0  0  0
 24 23  1  0  0  0  0
M  END
>  <MODEL>
6

>  <REMARK>
 VINA RESULT:    -6.002      2.289      6.355
 INTER + INTRA:         -10.824
 INTER:                  -9.473
 INTRA:                  -1.351
 UNBOUND:                -0.786
  Name = CHEMBL76790
  14 active torsions:
  status: ('A' for Active; 'I' for Inactive)
    1  A    between atoms: C_1  and  C_2
    2  A    between atoms: C_2  and  C_3
    3  A    between atoms: C_3  and  C_4
    4  A    between atoms: C_4  and  C_5
    5  A    between atoms: C_5  and  C_6
    6  A    between atoms: C_6  and  C_7
    7  A    between atoms: C_7  and  C_8
    8  A    between atoms: C_8  and  C_9
    9  A    between atoms: N_11  and  C_12
   10  A    between atoms: C_12  and  C_13
   11  A    between atoms: C_13  and  C_14
   12  A    between atoms: C_17  and  O_18
   13  A    between atoms: C_19  and  O_20
   14  A    between atoms: O_20  and  C_21
                            x       y       z     vdW  Elec       q    Type
                         _______ _______ _______ _____ _____    ______ ____

>  <TORSDO>
F 12

>  <SCORE>
-6.002

>  <RMSD_LB>
2.289

>  <RMSD_UB>
6.355

$$$$
CHEMBL76790
 OpenBabel10172500323D

 24 24  0  0  0  0  0  0  0  0999 V2000
  139.5860  138.1530  155.7280 C   0  0  0  0  0  0  0  0  0  0  0  0
  138.8650  138.9380  155.1140 O   0  0  0  0  0  0  0  0  0  0  0  0
  140.9200  137.9790  155.4290 N   0  0  0  0  0  0  0  0  0  0  0  0
  141.4730  137.3630  155.9630 H   0  0  0  0  0  0  0  0  0  0  0  0
  139.0920  137.3290  156.9000 C   0  0  0  0  0  2  0  0  0  0  0  0
  137.6480  137.6990  157.2390 C   0  0  0  0  0  2  0  0  0  0  0  0
  136.7150  136.4890  157.2250 C   0  0  0  0  0  2  0  0  0  0  0  0
  136.6300  135.8970  155.8180 C   0  0  0  0  0  2  0  0  0  0  0  0
  135.2810  135.2240  155.5750 C   0  0  0  0  0  2  0  0  0  0  0  0
  134.7430  135.5560  154.1840 C   0  0  0  0  0  2  0  0  0  0  0  0
  135.7760  134.2990  152.2660 C   0  0  0  0  0  1  0  0  0  0  0  0
  134.6700  134.3060  153.3090 C   0  0  0  0  0  2  0  0  0  0  0  0
  141.4990  138.7140  154.3220 C   0  0  0  0  0  2  0  0  0  0  0  0
  142.3850  137.8680  153.4110 C   0  0  0  0  0  2  0  0  0  0  0  0
  141.6760  137.5360  152.1210 C   0  0  0  0  0  0  0  0  0  0  0  0
  140.2890  137.7020  152.0200 C   0  0  0  0  0  3  0  0  0  0  0  0
  139.6170  137.3390  150.8530 C   0  0  0  0  0  3  0  0  0  0  0  0
  140.3200  136.8070  149.7680 C   0  0  0  0  0  0  0  0  0  0  0  0
  141.7060  136.6330  149.8410 C   0  0  0  0  0  0  0  0  0  0  0  0
  142.3690  136.9990  151.0230 C   0  0  0  0  0  3  0  0  0  0  0  0
  139.6090  136.4660  148.6510 O   0  0  0  0  0  0  0  0  0  0  0  0
  140.0500  136.1100  147.9050 H   0  0  0  0  0  0  0  0  0  0  0  0
  142.5460  136.1250  148.8830 O   0  0  0  0  0  0  0  0  0  0  0  0
  143.7890  135.5860  149.3050 C   0  0  0  0  0  1  0  0  0  0  0  0
  1  5  1  0  0  0  0
  2  1  2  0  0  0  0
  3  1  1  0  0  0  0
  3  4  1  0  0  0  0
  5  6  1  0  0  0  0
  7  6  1  0  0  0  0
  8  7  1  0  0  0  0
  9  8  1  0  0  0  0
 10  9  1  0  0  0  0
 11 12  1  0  0  0  0
 12 10  1  0  0  0  0
 13  3  1  0  0  0  0
 14 13  1  0  0  0  0
 15 14  1  0  0  0  0
 16 15  1  0  0  0  0
 17 16  2  0  0  0  0
 18 19  2  0  0  0  0
 18 17  1  0  0  0  0
 19 20  1  0  0  0  0
 20 15  2  0  0  0  0
 21 18  1  0  0  0  0
 22 21  1  0  0  0  0
 23 24  1  0  0  0  0
 23 19  1  0  0  0  0
M  END
>  <MODEL>
7

>  <REMARK>
 VINA RESULT:    -5.786      4.359      8.884
 INTER + INTRA:         -10.463
 INTER:                  -9.622
 INTRA:                  -0.841
 UNBOUND:                -0.786
  Name = CHEMBL76790
  14 active torsions:
  status: ('A' for Active; 'I' for Inactive)
    1  A    between atoms: C_1  and  C_2
    2  A    between atoms: C_2  and  C_3
    3  A    between atoms: C_3  and  C_4
    4  A    between atoms: C_4  and  C_5
    5  A    between atoms: C_5  and  C_6
    6  A    between atoms: C_6  and  C_7
    7  A    between atoms: C_7  and  C_8
    8  A    between atoms: C_8  and  C_9
    9  A    between atoms: N_11  and  C_12
   10  A    between atoms: C_12  and  C_13
   11  A    between atoms: C_13  and  C_14
   12  A    between atoms: C_17  and  O_18
   13  A    between atoms: C_19  and  O_20
   14  A    between atoms: O_20  and  C_21
                            x       y       z     vdW  Elec       q    Type
                         _______ _______ _______ _____ _____    ______ ____

>  <TORSDO>
F 12

>  <SCORE>
-5.786

>  <RMSD_LB>
4.359

>  <RMSD_UB>
8.884

$$$$
CHEMBL76790
 OpenBabel10172500323D

 24 24  0  0  0  0  0  0  0  0999 V2000
  145.7350  139.9100  148.1510 C   0  0  0  0  0  0  0  0  0  0  0  0
  145.1670  139.3360  147.2240 O   0  0  0  0  0  0  0  0  0  0  0  0
  146.1960  139.2450  149.2670 N   0  0  0  0  0  0  0  0  0  0  0  0
  146.6740  139.7340  149.9760 H   0  0  0  0  0  0  0  0  0  0  0  0
  146.0250  141.3980  148.1430 C   0  0  0  0  0  2  0  0  0  0  0  0
  146.8380  141.7870  149.3780 C   0  0  0  0  0  2  0  0  0  0  0  0
  145.9880  142.4790  150.4430 C   0  0  0  0  0  2  0  0  0  0  0  0
  146.6070  142.2850  151.8280 C   0  0  0  0  0  2  0  0  0  0  0  0
  147.8920  141.4630  151.7550 C   0  0  0  0  0  2  0  0  0  0  0  0
  148.9300  141.9780  152.7510 C   0  0  0  0  0  2  0  0  0  0  0  0
  148.4450  140.3840  154.6350 C   0  0  0  0  0  1  0  0  0  0  0  0
  148.4330  141.8370  154.1880 C   0  0  0  0  0  2  0  0  0  0  0  0
  145.9690  137.8180  149.3830 C   0  0  0  0  0  2  0  0  0  0  0  0
  146.1130  137.2800  150.8050 C   0  0  0  0  0  2  0  0  0  0  0  0
  145.1750  137.9910  151.7500 C   0  0  0  0  0  0  0  0  0  0  0  0
  145.6860  138.7010  152.8430 C   0  0  0  0  0  3  0  0  0  0  0  0
  144.8240  139.3100  153.7550 C   0  0  0  0  0  3  0  0  0  0  0  0
  143.4390  139.2180  153.5900 C   0  0  0  0  0  0  0  0  0  0  0  0
  142.9020  138.5160  152.5060 C   0  0  0  0  0  0  0  0  0  0  0  0
  143.7800  137.9070  151.5960 C   0  0  0  0  0  3  0  0  0  0  0  0
  142.6420  139.8310  154.5180 O   0  0  0  0  0  0  0  0  0  0  0  0
  141.7590  139.5440  154.6400 H   0  0  0  0  0  0  0  0  0  0  0  0
  141.5800  138.3230  152.1950 O   0  0  0  0  0  0  0  0  0  0  0  0
  141.2490  137.2480  151.3290 C   0  0  0  0  0  1  0  0  0  0  0  0
  1  3  1  0  0  0  0
  2  1  2  0  0  0  0
  3 13  1  0  0  0  0
  3  4  1  0  0  0  0
  5  1  1  0  0  0  0
  5  6  1  0  0  0  0
  6  7  1  0  0  0  0
  7  8  1  0  0  0  0
  9  8  1  0  0  0  0
  9 10  1  0  0  0  0
 10 12  1  0  0  0  0
 12 11  1  0  0  0  0
 13 14  1  0  0  0  0
 14 15  1  0  0  0  0
 15 16  1  0  0  0  0
 16 17  2  0  0  0  0
 18 17  1  0  0  0  0
 18 21  1  0  0  0  0
 19 18  2  0  0  0  0
 20 15  2  0  0  0  0
 20 19  1  0  0  0  0
 21 22  1  0  0  0  0
 23 19  1  0  0  0  0
 24 23  1  0  0  0  0
M  END
>  <MODEL>
8

>  <REMARK>
 VINA RESULT:    -5.645      1.768      3.123
 INTER + INTRA:         -10.225
 INTER:                  -8.532
 INTRA:                  -1.693
 UNBOUND:                -0.786
  Name = CHEMBL76790
  14 active torsions:
  status: ('A' for Active; 'I' for Inactive)
    1  A    between atoms: C_1  and  C_2
    2  A    between atoms: C_2  and  C_3
    3  A    between atoms: C_3  and  C_4
    4  A    between atoms: C_4  and  C_5
    5  A    between atoms: C_5  and  C_6
    6  A    between atoms: C_6  and  C_7
    7  A    between atoms: C_7  and  C_8
    8  A    between atoms: C_8  and  C_9
    9  A    between atoms: N_11  and  C_12
   10  A    between atoms: C_12  and  C_13
   11  A    between atoms: C_13  and  C_14
   12  A    between atoms: C_17  and  O_18
   13  A    between atoms: C_19  and  O_20
   14  A    between atoms: O_20  and  C_21
                            x       y       z     vdW  Elec       q    Type
                         _______ _______ _______ _____ _____    ______ ____

>  <TORSDO>
F 12

>  <SCORE>
-5.645

>  <RMSD_LB>
1.768

>  <RMSD_UB>
3.123

$$$$
CHEMBL76790
 OpenBabel10172500323D

 24 24  0  0  0  0  0  0  0  0999 V2000
  138.0530  136.7190  149.7970 C   0  0  0  0  0  0  0  0  0  0  0  0
  138.6160  135.9010  149.0720 O   0  0  0  0  0  0  0  0  0  0  0  0
  138.7020  137.8120  150.3300 N   0  0  0  0  0  0  0  0  0  0  0  0
  138.2100  138.4620  150.8820 H   0  0  0  0  0  0  0  0  0  0  0  0
  136.5790  136.6330  150.1450 C   0  0  0  0  0  2  0  0  0  0  0  0
  136.4010  136.1130  151.5720 C   0  0  0  0  0  2  0  0  0  0  0  0
  135.0300  135.4760  151.7950 C   0  0  0  0  0  2  0  0  0  0  0  0
  135.0610  133.9960  151.4120 C   0  0  0  0  0  2  0  0  0  0  0  0
  134.0030  133.6680  150.3610 C   0  0  0  0  0  2  0  0  0  0  0  0
  133.0330  134.8330  150.1760 C   0  0  0  0  0  2  0  0  0  0  0  0
  132.8960  136.8820  148.7240 C   0  0  0  0  0  1  0  0  0  0  0  0
  133.0850  135.3740  148.7490 C   0  0  0  0  0  2  0  0  0  0  0  0
  140.1160  137.9920  150.0670 C   0  0  0  0  0  2  0  0  0  0  0  0
  141.0230  137.0970  150.9080 C   0  0  0  0  0  2  0  0  0  0  0  0
  141.3130  137.7270  152.2490 C   0  0  0  0  0  0  0  0  0  0  0  0
  142.6170  137.7220  152.7590 C   0  0  0  0  0  3  0  0  0  0  0  0
  142.8830  138.2470  154.0230 C   0  0  0  0  0  3  0  0  0  0  0  0
  141.8510  138.7860  154.7980 C   0  0  0  0  0  0  0  0  0  0  0  0
  140.5400  138.8050  154.3110 C   0  0  0  0  0  0  0  0  0  0  0  0
  140.2860  138.2720  153.0370 C   0  0  0  0  0  3  0  0  0  0  0  0
  142.1690  139.2830  156.0310 O   0  0  0  0  0  0  0  0  0  0  0  0
  141.4900  139.5100  156.6350 H   0  0  0  0  0  0  0  0  0  0  0  0
  139.4150  139.2870  154.9300 O   0  0  0  0  0  0  0  0  0  0  0  0
  138.2190  138.5300  154.8230 C   0  0  0  0  0  1  0  0  0  0  0  0
  1  5  1  0  0  0  0
  1  3  1  0  0  0  0
  2  1  2  0  0  0  0
  3  4  1  0  0  0  0
  5  6  1  0  0  0  0
  6  7  1  0  0  0  0
  8  7  1  0  0  0  0
  9  8  1  0  0  0  0
 10  9  1  0  0  0  0
 11 12  1  0  0  0  0
 12 10  1  0  0  0  0
 13  3  1  0  0  0  0
 13 14  1  0  0  0  0
 14 15  1  0  0  0  0
 15 16  2  0  0  0  0
 15 20  1  0  0  0  0
 16 17  1  0  0  0  0
 17 18  2  0  0  0  0
 18 21  1  0  0  0  0
 19 18  1  0  0  0  0
 19 23  1  0  0  0  0
 20 19  2  0  0  0  0
 21 22  1  0  0  0  0
 24 23  1  0  0  0  0
M  END
>  <MODEL>
9

>  <REMARK>
 VINA RESULT:    -5.578      4.177      9.475
 INTER + INTRA:         -10.115
 INTER:                  -9.329
 INTRA:                  -0.786
 UNBOUND:                -0.786
  Name = CHEMBL76790
  14 active torsions:
  status: ('A' for Active; 'I' for Inactive)
    1  A    between atoms: C_1  and  C_2
    2  A    between atoms: C_2  and  C_3
    3  A    between atoms: C_3  and  C_4
    4  A    between atoms: C_4  and  C_5
    5  A    between atoms: C_5  and  C_6
    6  A    between atoms: C_6  and  C_7
    7  A    between atoms: C_7  and  C_8
    8  A    between atoms: C_8  and  C_9
    9  A    between atoms: N_11  and  C_12
   10  A    between atoms: C_12  and  C_13
   11  A    between atoms: C_13  and  C_14
   12  A    between atoms: C_17  and  O_18
   13  A    between atoms: C_19  and  O_20
   14  A    between atoms: O_20  and  C_21
                            x       y       z     vdW  Elec       q    Type
                         _______ _______ _______ _____ _____    ______ ____

>  <TORSDO>
F 12

>  <SCORE>
-5.578

>  <RMSD_LB>
4.177

>  <RMSD_UB>
9.475

$$$$
