CHEMBL124721
 OpenBabel10162523573D

 24 25  0  0  1  0  0  0  0  0999 V2000
  143.4180  138.7170  151.4940 N   0  0  0  0  0  0  0  0  0  0  0  0
  144.1160  139.6610  152.2080 C   0  0  0  0  0  0  0  0  0  0  0  0
  144.3010  139.5820  153.4140 O   0  0  0  0  0  0  0  0  0  0  0  0
  143.2730  138.8530  150.5300 H   0  0  0  0  0  0  0  0  0  0  0  0
  144.6640  140.7680  151.3730 C   0  0  1  0  0  3  0  0  0  0  0  0
  145.8220  141.6460  151.7590 C   0  0  2  0  0  3  0  0  0  0  0  0
  145.9730  140.6840  150.5910 C   0  0  0  0  0  0  0  0  0  0  0  0
  146.7770  139.4060  150.6620 C   0  0  0  0  0  1  0  0  0  0  0  0
  146.0440  141.3330  149.2290 C   0  0  0  0  0  1  0  0  0  0  0  0
  146.6980  141.5350  152.9360 C   0  0  0  0  0  3  0  0  0  0  0  0
  148.0120  141.8560  152.9380 C   0  0  0  0  0  0  0  0  0  0  0  0
  148.7730  142.2670  151.7030 C   0  0  0  0  0  1  0  0  0  0  0  0
  148.8470  141.8810  154.1910 C   0  0  0  0  0  1  0  0  0  0  0  0
  142.8900  137.5290  152.1260 C   0  0  0  0  0  2  0  0  0  0  0  0
  139.9720  138.2830  154.4940 C   0  0  0  0  0  0  0  0  0  0  0  0
  141.2640  138.0670  154.0010 C   0  0  0  0  0  3  0  0  0  0  0  0
  141.4880  137.7310  152.6530 C   0  0  0  0  0  0  0  0  0  0  0  0
  140.3890  137.6320  151.7900 C   0  0  0  0  0  3  0  0  0  0  0  0
  139.0930  137.8480  152.2650 C   0  0  0  0  0  3  0  0  0  0  0  0
  138.8880  138.1660  153.6110 C   0  0  0  0  0  0  0  0  0  0  0  0
  139.6870  137.5510  156.7420 C   0  0  0  0  0  1  0  0  0  0  0  0
  139.6710  138.6070  155.7900 O   0  0  0  0  0  0  0  0  0  0  0  0
  137.6210  138.3740  154.0720 O   0  0  0  0  0  0  0  0  0  0  0  0
  137.4310  138.2710  154.9840 H   0  0  0  0  0  0  0  0  0  0  0  0
  1 14  1  0  0  0  0
  1  2  1  0  0  0  0
  2  3  2  0  0  0  0
  4  1  1  0  0  0  0
  5  6  1  0  0  0  0
  5  2  1  1  0  0  0
  6 10  1  1  0  0  0
  7  8  1  0  0  0  0
  7  5  1  0  0  0  0
  7  6  1  0  0  0  0
  9  7  1  0  0  0  0
 10 11  2  0  0  0  0
 11 13  1  0  0  0  0
 12 11  1  0  0  0  0
 14 17  1  0  0  0  0
 15 22  1  0  0  0  0
 16 15  1  0  0  0  0
 17 16  2  0  0  0  0
 18 19  2  0  0  0  0
 18 17  1  0  0  0  0
 19 20  1  0  0  0  0
 20 23  1  0  0  0  0
 20 15  2  0  0  0  0
 22 21  1  0  0  0  0
 23 24  1  0  0  0  0
M  END
>  <MODEL>
1

>  <REMARK>
 VINA RESULT:    -7.536      0.000      0.000
 INTER + INTRA:         -10.552
 INTER:                 -10.084
 INTRA:                  -0.468
 UNBOUND:                -0.593
  Name = CHEMBL124721
  11 active torsions:
  status: ('A' for Active; 'I' for Inactive)
    1  A    between atoms: C_1  and  O_2
    2  A    between atoms: O_2  and  C_3
    3  A    between atoms: C_5  and  C_6
    4  A    between atoms: C_6  and  N_7
    5  A    between atoms: C_8  and  C_10
    6  A    between atoms: C_11  and  C_12
    7  A    between atoms: C_13  and  C_14
    8  A    between atoms: C_13  and  C_15
    9  A    between atoms: C_16  and  C_17
   10  A    between atoms: C_16  and  C_18
   11  A    between atoms: C_21  and  O_22
                            x       y       z     vdW  Elec       q    Type
                         _______ _______ _______ _____ _____    ______ ____

>  <TORSDO>
F 6

>  <SCORE>
-7.536

>  <RMSD_LB>
0.000

>  <RMSD_UB>
0.000

$$$$
CHEMBL124721
 OpenBabel10162523573D

 24 25  0  0  1  0  0  0  0  0999 V2000
  143.7890  140.5810  151.1380 N   0  0  0  0  0  0  0  0  0  0  0  0
  143.4930  139.4550  150.4070 C   0  0  0  0  0  0  0  0  0  0  0  0
  144.1880  139.0610  149.4820 O   0  0  0  0  0  0  0  0  0  0  0  0
  143.1720  140.8680  151.8490 H   0  0  0  0  0  0  0  0  0  0  0  0
  142.2720  138.7360  150.8710 C   0  0  1  0  0  3  0  0  0  0  0  0
  141.9870  137.2800  150.6280 C   0  0  2  0  0  3  0  0  0  0  0  0
  142.2460  137.7630  152.0460 C   0  0  0  0  0  0  0  0  0  0  0  0
  143.5320  137.4990  152.7950 C   0  0  0  0  0  1  0  0  0  0  0  0
  141.0400  137.7610  152.9560 C   0  0  0  0  0  1  0  0  0  0  0  0
  142.8610  136.2690  150.0110 C   0  0  0  0  0  3  0  0  0  0  0  0
  142.5060  135.5000  148.9570 C   0  0  0  0  0  0  0  0  0  0  0  0
  141.1280  135.5050  148.3460 C   0  0  0  0  0  1  0  0  0  0  0  0
  143.4700  134.5850  148.2490 C   0  0  0  0  0  1  0  0  0  0  0  0
  144.9840  141.3540  150.8850 C   0  0  0  0  0  2  0  0  0  0  0  0
  146.7470  140.1870  154.0820 C   0  0  0  0  0  0  0  0  0  0  0  0
  145.8070  140.3200  153.0530 C   0  0  0  0  0  3  0  0  0  0  0  0
  145.9910  141.2420  152.0060 C   0  0  0  0  0  0  0  0  0  0  0  0
  147.1520  142.0250  151.9920 C   0  0  0  0  0  3  0  0  0  0  0  0
  148.1020  141.9030  153.0090 C   0  0  0  0  0  3  0  0  0  0  0  0
  147.8960  140.9930  154.0500 C   0  0  0  0  0  0  0  0  0  0  0  0
  146.7580  137.9330  154.8470 C   0  0  0  0  0  1  0  0  0  0  0  0
  146.6390  139.3190  155.1360 O   0  0  0  0  0  0  0  0  0  0  0  0
  148.8240  140.8770  155.0440 O   0  0  0  0  0  0  0  0  0  0  0  0
  149.4960  140.2280  154.9840 H   0  0  0  0  0  0  0  0  0  0  0  0
  1  4  1  0  0  0  0
  2  1  1  0  0  0  0
  3  2  2  0  0  0  0
  5  2  1  6  0  0  0
  5  7  1  0  0  0  0
  6 10  1  6  0  0  0
  6  5  1  0  0  0  0
  6  7  1  0  0  0  0
  7  8  1  0  0  0  0
  7  9  1  0  0  0  0
 11 10  2  0  0  0  0
 12 11  1  0  0  0  0
 13 11  1  0  0  0  0
 14  1  1  0  0  0  0
 14 17  1  0  0  0  0
 15 22  1  0  0  0  0
 16 15  2  0  0  0  0
 17 16  1  0  0  0  0
 18 17  2  0  0  0  0
 18 19  1  0  0  0  0
 19 20  2  0  0  0  0
 20 15  1  0  0  0  0
 20 23  1  0  0  0  0
 21 22  1  0  0  0  0
 24 23  1  0  0  0  0
M  END
>  <MODEL>
2

>  <REMARK>
 VINA RESULT:    -7.096      2.867      7.237
 INTER + INTRA:          -9.971
 INTER:                  -9.266
 INTRA:                  -0.705
 UNBOUND:                -0.593
  Name = CHEMBL124721
  11 active torsions:
  status: ('A' for Active; 'I' for Inactive)
    1  A    between atoms: C_1  and  O_2
    2  A    between atoms: O_2  and  C_3
    3  A    between atoms: C_5  and  C_6
    4  A    between atoms: C_6  and  N_7
    5  A    between atoms: C_8  and  C_10
    6  A    between atoms: C_11  and  C_12
    7  A    between atoms: C_13  and  C_14
    8  A    between atoms: C_13  and  C_15
    9  A    between atoms: C_16  and  C_17
   10  A    between atoms: C_16  and  C_18
   11  A    between atoms: C_21  and  O_22
                            x       y       z     vdW  Elec       q    Type
                         _______ _______ _______ _____ _____    ______ ____

>  <TORSDO>
F 6

>  <SCORE>
-7.096

>  <RMSD_LB>
2.867

>  <RMSD_UB>
7.237

$$$$
CHEMBL124721
 OpenBabel10162523573D

 24 25  0  0  1  0  0  0  0  0999 V2000
  143.6980  137.0480  151.3110 N   0  0  0  0  0  0  0  0  0  0  0  0
  144.5770  137.8740  150.6520 C   0  0  0  0  0  0  0  0  0  0  0  0
  144.2940  138.4540  149.6140 O   0  0  0  0  0  0  0  0  0  0  0  0
  143.9960  136.5810  152.1250 H   0  0  0  0  0  0  0  0  0  0  0  0
  145.8910  138.0320  151.3390 C   0  0  1  0  0  3  0  0  0  0  0  0
  146.7970  139.2230  151.2000 C   0  0  2  0  0  3  0  0  0  0  0  0
  146.1270  138.9470  152.5370 C   0  0  0  0  0  0  0  0  0  0  0  0
  144.9650  139.7550  153.0700 C   0  0  0  0  0  1  0  0  0  0  0  0
  147.0510  138.4780  153.6350 C   0  0  0  0  0  1  0  0  0  0  0  0
  146.5440  140.4840  150.4840 C   0  0  0  0  0  3  0  0  0  0  0  0
  147.2270  141.6310  150.7000 C   0  0  0  0  0  0  0  0  0  0  0  0
  148.2650  141.7930  151.7810 C   0  0  0  0  0  1  0  0  0  0  0  0
  147.0540  142.8610  149.8480 C   0  0  0  0  0  1  0  0  0  0  0  0
  142.3480  136.8470  150.8370 C   0  0  0  0  0  2  0  0  0  0  0  0
  140.7260  138.4870  153.8970 C   0  0  0  0  0  0  0  0  0  0  0  0
  141.6660  137.8920  153.0470 C   0  0  0  0  0  3  0  0  0  0  0  0
  141.3170  137.4600  151.7550 C   0  0  0  0  0  0  0  0  0  0  0  0
  140.0020  137.6510  151.3120 C   0  0  0  0  0  3  0  0  0  0  0  0
  139.0520  138.2450  152.1460 C   0  0  0  0  0  3  0  0  0  0  0  0
  139.4130  138.6550  153.4330 C   0  0  0  0  0  0  0  0  0  0  0  0
  142.2400  139.5590  155.3890 C   0  0  0  0  0  1  0  0  0  0  0  0
  140.9860  138.9280  155.1670 O   0  0  0  0  0  0  0  0  0  0  0  0
  138.4820  139.2330  154.2460 O   0  0  0  0  0  0  0  0  0  0  0  0
  138.7320  139.9250  154.8260 H   0  0  0  0  0  0  0  0  0  0  0  0
  1  4  1  0  0  0  0
  2  1  1  0  0  0  0
  3  2  2  0  0  0  0
  5  2  1  6  0  0  0
  5  7  1  0  0  0  0
  6 10  1  6  0  0  0
  6  5  1  0  0  0  0
  6  7  1  0  0  0  0
  7  8  1  0  0  0  0
  7  9  1  0  0  0  0
 10 11  2  0  0  0  0
 11 12  1  0  0  0  0
 13 11  1  0  0  0  0
 14  1  1  0  0  0  0
 14 17  1  0  0  0  0
 15 22  1  0  0  0  0
 16 15  2  0  0  0  0
 17 16  1  0  0  0  0
 18 17  2  0  0  0  0
 18 19  1  0  0  0  0
 19 20  2  0  0  0  0
 20 15  1  0  0  0  0
 20 23  1  0  0  0  0
 22 21  1  0  0  0  0
 23 24  1  0  0  0  0
M  END
>  <MODEL>
3

>  <REMARK>
 VINA RESULT:    -7.083      1.701      2.560
 INTER + INTRA:          -9.953
 INTER:                  -9.097
 INTRA:                  -0.856
 UNBOUND:                -0.593
  Name = CHEMBL124721
  11 active torsions:
  status: ('A' for Active; 'I' for Inactive)
    1  A    between atoms: C_1  and  O_2
    2  A    between atoms: O_2  and  C_3
    3  A    between atoms: C_5  and  C_6
    4  A    between atoms: C_6  and  N_7
    5  A    between atoms: C_8  and  C_10
    6  A    between atoms: C_11  and  C_12
    7  A    between atoms: C_13  and  C_14
    8  A    between atoms: C_13  and  C_15
    9  A    between atoms: C_16  and  C_17
   10  A    between atoms: C_16  and  C_18
   11  A    between atoms: C_21  and  O_22
                            x       y       z     vdW  Elec       q    Type
                         _______ _______ _______ _____ _____    ______ ____

>  <TORSDO>
F 6

>  <SCORE>
-7.083

>  <RMSD_LB>
1.701

>  <RMSD_UB>
2.560

$$$$
CHEMBL124721
 OpenBabel10162523573D

 24 25  0  0  1  0  0  0  0  0999 V2000
  144.9000  140.4420  150.2790 N   0  0  0  0  0  0  0  0  0  0  0  0
  144.1130  139.6190  151.0490 C   0  0  0  0  0  0  0  0  0  0  0  0
  143.6250  139.9700  152.1140 O   0  0  0  0  0  0  0  0  0  0  0  0
  145.2930  140.0900  149.4470 H   0  0  0  0  0  0  0  0  0  0  0  0
  143.8720  138.2760  150.4490 C   0  0  1  0  0  3  0  0  0  0  0  0
  144.2540  136.9680  151.0850 C   0  0  2  0  0  3  0  0  0  0  0  0
  142.7830  137.3120  150.9130 C   0  0  0  0  0  0  0  0  0  0  0  0
  141.8850  137.7320  152.0550 C   0  0  0  0  0  1  0  0  0  0  0  0
  142.0490  136.4970  149.8750 C   0  0  0  0  0  1  0  0  0  0  0  0
  144.8150  136.7350  152.4260 C   0  0  0  0  0  3  0  0  0  0  0  0
  146.1310  136.8210  152.7240 C   0  0  0  0  0  0  0  0  0  0  0  0
  147.2060  137.0630  151.6950 C   0  0  0  0  0  1  0  0  0  0  0  0
  146.6600  136.7310  154.1310 C   0  0  0  0  0  1  0  0  0  0  0  0
  145.1670  141.8090  150.6620 C   0  0  0  0  0  2  0  0  0  0  0  0
  148.1910  141.7350  153.0140 C   0  0  0  0  0  0  0  0  0  0  0  0
  146.8930  141.5940  152.5110 C   0  0  0  0  0  3  0  0  0  0  0  0
  146.5650  141.9940  151.2030 C   0  0  0  0  0  0  0  0  0  0  0  0
  147.5720  142.5270  150.3880 C   0  0  0  0  0  3  0  0  0  0  0  0
  148.8740  142.6720  150.8730 C   0  0  0  0  0  3  0  0  0  0  0  0
  149.1790  142.2830  152.1810 C   0  0  0  0  0  0  0  0  0  0  0  0
  148.3020  140.0450  154.6870 C   0  0  0  0  0  1  0  0  0  0  0  0
  148.5880  141.3750  154.2750 O   0  0  0  0  0  0  0  0  0  0  0  0
  150.4510  142.4280  152.6530 O   0  0  0  0  0  0  0  0  0  0  0  0
  151.1660  142.0230  152.2030 H   0  0  0  0  0  0  0  0  0  0  0  0
  1 14  1  0  0  0  0
  1  2  1  0  0  0  0
  2  3  2  0  0  0  0
  4  1  1  0  0  0  0
  5  7  1  0  0  0  0
  5  2  1  1  0  0  0
  5  6  1  0  0  0  0
  6 10  1  1  0  0  0
  7  6  1  0  0  0  0
  7  8  1  0  0  0  0
  9  7  1  0  0  0  0
 10 11  2  0  0  0  0
 11 13  1  0  0  0  0
 12 11  1  0  0  0  0
 14 17  1  0  0  0  0
 15 22  1  0  0  0  0
 16 15  1  0  0  0  0
 17 16  2  0  0  0  0
 18 19  2  0  0  0  0
 18 17  1  0  0  0  0
 19 20  1  0  0  0  0
 20 23  1  0  0  0  0
 20 15  2  0  0  0  0
 22 21  1  0  0  0  0
 24 23  1  0  0  0  0
M  END
>  <MODEL>
4

>  <REMARK>
 VINA RESULT:    -7.015      2.739      7.166
 INTER + INTRA:          -9.864
 INTER:                  -9.565
 INTRA:                  -0.299
 UNBOUND:                -0.593
  Name = CHEMBL124721
  11 active torsions:
  status: ('A' for Active; 'I' for Inactive)
    1  A    between atoms: C_1  and  O_2
    2  A    between atoms: O_2  and  C_3
    3  A    between atoms: C_5  and  C_6
    4  A    between atoms: C_6  and  N_7
    5  A    between atoms: C_8  and  C_10
    6  A    between atoms: C_11  and  C_12
    7  A    between atoms: C_13  and  C_14
    8  A    between atoms: C_13  and  C_15
    9  A    between atoms: C_16  and  C_17
   10  A    between atoms: C_16  and  C_18
   11  A    between atoms: C_21  and  O_22
                            x       y       z     vdW  Elec       q    Type
                         _______ _______ _______ _____ _____    ______ ____

>  <TORSDO>
F 6

>  <SCORE>
-7.015

>  <RMSD_LB>
2.739

>  <RMSD_UB>
7.166

$$$$
CHEMBL124721
 OpenBabel10162523573D

 24 25  0  0  1  0  0  0  0  0999 V2000
  134.6280  134.8790  146.2500 N   0  0  0  0  0  0  0  0  0  0  0  0
  134.6290  133.6920  145.5560 C   0  0  0  0  0  0  0  0  0  0  0  0
  133.7140  132.8840  145.6190 O   0  0  0  0  0  0  0  0  0  0  0  0
  135.4100  135.4740  146.1860 H   0  0  0  0  0  0  0  0  0  0  0  0
  135.8250  133.4990  144.6890 C   0  0  1  0  0  3  0  0  0  0  0  0
  137.2490  133.5020  145.1720 C   0  0  2  0  0  3  0  0  0  0  0  0
  136.6470  132.2140  144.6350 C   0  0  0  0  0  0  0  0  0  0  0  0
  136.2350  131.0550  145.5150 C   0  0  0  0  0  1  0  0  0  0  0  0
  137.1900  131.7580  143.3020 C   0  0  0  0  0  1  0  0  0  0  0  0
  137.7420  133.5760  146.5570 C   0  0  0  0  0  3  0  0  0  0  0  0
  138.0850  134.7270  147.1810 C   0  0  0  0  0  0  0  0  0  0  0  0
  138.1080  136.0710  146.5000 C   0  0  0  0  0  1  0  0  0  0  0  0
  138.4380  134.7910  148.6440 C   0  0  0  0  0  1  0  0  0  0  0  0
  133.5070  135.2730  147.0730 C   0  0  0  0  0  2  0  0  0  0  0  0
  134.8980  134.6530  150.5900 C   0  0  0  0  0  0  0  0  0  0  0  0
  134.7800  135.0770  149.2610 C   0  0  0  0  0  3  0  0  0  0  0  0
  133.6360  134.7830  148.4970 C   0  0  0  0  0  0  0  0  0  0  0  0
  132.5920  134.0650  149.0930 C   0  0  0  0  0  3  0  0  0  0  0  0
  132.6920  133.6370  150.4190 C   0  0  0  0  0  3  0  0  0  0  0  0
  133.8420  133.9250  151.1590 C   0  0  0  0  0  0  0  0  0  0  0  0
  136.2320  136.2470  151.7510 C   0  0  0  0  0  1  0  0  0  0  0  0
  135.9780  134.8940  151.3970 O   0  0  0  0  0  0  0  0  0  0  0  0
  133.9390  133.5030  152.4530 O   0  0  0  0  0  0  0  0  0  0  0  0
  133.3070  133.7830  153.0860 H   0  0  0  0  0  0  0  0  0  0  0  0
  1 14  1  0  0  0  0
  2  3  2  0  0  0  0
  2  1  1  0  0  0  0
  4  1  1  0  0  0  0
  5  6  1  0  0  0  0
  5  2  1  1  0  0  0
  6 10  1  1  0  0  0
  7  5  1  0  0  0  0
  7  6  1  0  0  0  0
  7  8  1  0  0  0  0
  9  7  1  0  0  0  0
 10 11  2  0  0  0  0
 11 13  1  0  0  0  0
 12 11  1  0  0  0  0
 14 17  1  0  0  0  0
 15 20  1  0  0  0  0
 15 22  1  0  0  0  0
 16 15  2  0  0  0  0
 17 18  2  0  0  0  0
 17 16  1  0  0  0  0
 18 19  1  0  0  0  0
 19 20  2  0  0  0  0
 20 23  1  0  0  0  0
 22 21  1  0  0  0  0
 23 24  1  0  0  0  0
M  END
>  <MODEL>
5

>  <REMARK>
 VINA RESULT:    -6.976      8.790     11.401
 INTER + INTRA:          -9.811
 INTER:                  -8.834
 INTRA:                  -0.978
 UNBOUND:                -0.593
  Name = CHEMBL124721
  11 active torsions:
  status: ('A' for Active; 'I' for Inactive)
    1  A    between atoms: C_1  and  O_2
    2  A    between atoms: O_2  and  C_3
    3  A    between atoms: C_5  and  C_6
    4  A    between atoms: C_6  and  N_7
    5  A    between atoms: C_8  and  C_10
    6  A    between atoms: C_11  and  C_12
    7  A    between atoms: C_13  and  C_14
    8  A    between atoms: C_13  and  C_15
    9  A    between atoms: C_16  and  C_17
   10  A    between atoms: C_16  and  C_18
   11  A    between atoms: C_21  and  O_22
                            x       y       z     vdW  Elec       q    Type
                         _______ _______ _______ _____ _____    ______ ____

>  <TORSDO>
F 6

>  <SCORE>
-6.976

>  <RMSD_LB>
8.790

>  <RMSD_UB>
11.401

$$$$
CHEMBL124721
 OpenBabel10162523573D

 24 25  0  0  1  0  0  0  0  0999 V2000
  144.6420  136.9170  151.8140 N   0  0  0  0  0  0  0  0  0  0  0  0
  145.7390  137.7250  151.6300 C   0  0  0  0  0  0  0  0  0  0  0  0
  145.9940  138.2690  150.5650 O   0  0  0  0  0  0  0  0  0  0  0  0
  144.5080  136.4780  152.6850 H   0  0  0  0  0  0  0  0  0  0  0  0
  146.5670  137.9100  152.8560 C   0  0  1  0  0  3  0  0  0  0  0  0
  147.6100  138.9770  153.0370 C   0  0  2  0  0  3  0  0  0  0  0  0
  146.3460  139.0200  153.8790 C   0  0  0  0  0  0  0  0  0  0  0  0
  145.2220  140.0050  153.6470 C   0  0  0  0  0  1  0  0  0  0  0  0
  146.5370  138.7030  155.3440 C   0  0  0  0  0  1  0  0  0  0  0  0
  147.9450  140.0890  152.1330 C   0  0  0  0  0  3  0  0  0  0  0  0
  148.5700  141.2230  152.5230 C   0  0  0  0  0  0  0  0  0  0  0  0
  148.9080  141.5390  153.9580 C   0  0  0  0  0  1  0  0  0  0  0  0
  149.0380  142.2760  151.5530 C   0  0  0  0  0  1  0  0  0  0  0  0
  143.6800  136.6960  150.7580 C   0  0  0  0  0  2  0  0  0  0  0  0
  139.9080  137.3570  150.6160 C   0  0  0  0  0  0  0  0  0  0  0  0
  141.2090  136.9860  150.2550 C   0  0  0  0  0  3  0  0  0  0  0  0
  142.2860  137.1280  151.1490 C   0  0  0  0  0  0  0  0  0  0  0  0
  142.0370  137.6340  152.4310 C   0  0  0  0  0  3  0  0  0  0  0  0
  140.7450  138.0060  152.8080 C   0  0  0  0  0  3  0  0  0  0  0  0
  139.6880  137.8730  151.9020 C   0  0  0  0  0  0  0  0  0  0  0  0
  138.4960  135.9640  149.2980 C   0  0  0  0  0  1  0  0  0  0  0  0
  138.8100  137.2550  149.8040 O   0  0  0  0  0  0  0  0  0  0  0  0
  138.4270  138.2390  152.2720 O   0  0  0  0  0  0  0  0  0  0  0  0
  138.1840  139.1440  152.2780 H   0  0  0  0  0  0  0  0  0  0  0  0
  1  4  1  0  0  0  0
  2  1  1  0  0  0  0
  3  2  2  0  0  0  0
  5  2  1  6  0  0  0
  5  6  1  0  0  0  0
  5  7  1  0  0  0  0
  6 10  1  6  0  0  0
  6  7  1  0  0  0  0
  7  9  1  0  0  0  0
  8  7  1  0  0  0  0
 10 11  2  0  0  0  0
 11 12  1  0  0  0  0
 13 11  1  0  0  0  0
 14 17  1  0  0  0  0
 14  1  1  0  0  0  0
 15 20  1  0  0  0  0
 16 15  2  0  0  0  0
 16 17  1  0  0  0  0
 17 18  2  0  0  0  0
 18 19  1  0  0  0  0
 20 23  1  0  0  0  0
 20 19  2  0  0  0  0
 21 22  1  0  0  0  0
 22 15  1  0  0  0  0
 23 24  1  0  0  0  0
M  END
>  <MODEL>
6

>  <REMARK>
 VINA RESULT:    -6.797      2.278      3.613
 INTER + INTRA:          -9.575
 INTER:                  -8.799
 INTRA:                  -0.776
 UNBOUND:                -0.593
  Name = CHEMBL124721
  11 active torsions:
  status: ('A' for Active; 'I' for Inactive)
    1  A    between atoms: C_1  and  O_2
    2  A    between atoms: O_2  and  C_3
    3  A    between atoms: C_5  and  C_6
    4  A    between atoms: C_6  and  N_7
    5  A    between atoms: C_8  and  C_10
    6  A    between atoms: C_11  and  C_12
    7  A    between atoms: C_13  and  C_14
    8  A    between atoms: C_13  and  C_15
    9  A    between atoms: C_16  and  C_17
   10  A    between atoms: C_16  and  C_18
   11  A    between atoms: C_21  and  O_22
                            x       y       z     vdW  Elec       q    Type
                         _______ _______ _______ _____ _____    ______ ____

>  <TORSDO>
F 6

>  <SCORE>
-6.797

>  <RMSD_LB>
2.278

>  <RMSD_UB>
3.613

$$$$
CHEMBL124721
 OpenBabel10162523573D

 24 25  0  0  1  0  0  0  0  0999 V2000
  144.7450  139.2370  150.3450 N   0  0  0  0  0  0  0  0  0  0  0  0
  143.5320  138.9860  150.9410 C   0  0  0  0  0  0  0  0  0  0  0  0
  142.8910  139.8420  151.5320 O   0  0  0  0  0  0  0  0  0  0  0  0
  145.2310  138.4970  149.9130 H   0  0  0  0  0  0  0  0  0  0  0  0
  143.0500  137.5860  150.7660 C   0  0  1  0  0  3  0  0  0  0  0  0
  141.7480  137.0520  151.2940 C   0  0  2  0  0  3  0  0  0  0  0  0
  141.9480  137.1750  149.7920 C   0  0  0  0  0  0  0  0  0  0  0  0
  141.2930  138.2450  148.9480 C   0  0  0  0  0  1  0  0  0  0  0  0
  142.0880  135.8660  149.0530 C   0  0  0  0  0  1  0  0  0  0  0  0
  140.6650  137.7880  151.9670 C   0  0  0  0  0  3  0  0  0  0  0  0
  140.6960  138.1670  153.2650 C   0  0  0  0  0  0  0  0  0  0  0  0
  141.8000  137.7890  154.2190 C   0  0  0  0  0  1  0  0  0  0  0  0
  139.6470  139.0510  153.8850 C   0  0  0  0  0  1  0  0  0  0  0  0
  145.3250  140.5600  150.3390 C   0  0  0  0  0  2  0  0  0  0  0  0
  147.9730  140.2010  153.0860 C   0  0  0  0  0  0  0  0  0  0  0  0
  147.1780  139.9470  151.9630 C   0  0  0  0  0  3  0  0  0  0  0  0
  146.1570  140.8310  151.5710 C   0  0  0  0  0  0  0  0  0  0  0  0
  145.9520  141.9990  152.3170 C   0  0  0  0  0  3  0  0  0  0  0  0
  146.7390  142.2700  153.4390 C   0  0  0  0  0  3  0  0  0  0  0  0
  147.7390  141.3720  153.8230 C   0  0  0  0  0  0  0  0  0  0  0  0
  148.8190  137.9900  153.3410 C   0  0  0  0  0  1  0  0  0  0  0  0
  148.9810  139.3890  153.5340 O   0  0  0  0  0  0  0  0  0  0  0  0
  148.5050  141.6380  154.9210 O   0  0  0  0  0  0  0  0  0  0  0  0
  148.7040  142.5250  155.1490 H   0  0  0  0  0  0  0  0  0  0  0  0
  1  2  1  0  0  0  0
  2  3  2  0  0  0  0
  4  1  1  0  0  0  0
  5  2  1  1  0  0  0
  5  6  1  0  0  0  0
  6 10  1  1  0  0  0
  7  5  1  0  0  0  0
  7  6  1  0  0  0  0
  8  7  1  0  0  0  0
  9  7  1  0  0  0  0
 10 11  2  0  0  0  0
 11 13  1  0  0  0  0
 11 12  1  0  0  0  0
 14  1  1  0  0  0  0
 14 17  1  0  0  0  0
 15 22  1  0  0  0  0
 15 20  1  0  0  0  0
 16 15  2  0  0  0  0
 17 16  1  0  0  0  0
 17 18  2  0  0  0  0
 18 19  1  0  0  0  0
 19 20  2  0  0  0  0
 20 23  1  0  0  0  0
 21 22  1  0  0  0  0
 23 24  1  0  0  0  0
M  END
>  <MODEL>
7

>  <REMARK>
 VINA RESULT:    -6.688      2.282      7.251
 INTER + INTRA:          -9.431
 INTER:                  -8.871
 INTRA:                  -0.559
 UNBOUND:                -0.593
  Name = CHEMBL124721
  11 active torsions:
  status: ('A' for Active; 'I' for Inactive)
    1  A    between atoms: C_1  and  O_2
    2  A    between atoms: O_2  and  C_3
    3  A    between atoms: C_5  and  C_6
    4  A    between atoms: C_6  and  N_7
    5  A    between atoms: C_8  and  C_10
    6  A    between atoms: C_11  and  C_12
    7  A    between atoms: C_13  and  C_14
    8  A    between atoms: C_13  and  C_15
    9  A    between atoms: C_16  and  C_17
   10  A    between atoms: C_16  and  C_18
   11  A    between atoms: C_21  and  O_22
                            x       y       z     vdW  Elec       q    Type
                         _______ _______ _______ _____ _____    ______ ____

>  <TORSDO>
F 6

>  <SCORE>
-6.688

>  <RMSD_LB>
2.282

>  <RMSD_UB>
7.251

$$$$
CHEMBL124721
 OpenBabel10162523573D

 24 25  0  0  1  0  0  0  0  0999 V2000
  144.4360  139.4280  149.4490 N   0  0  0  0  0  0  0  0  0  0  0  0
  143.0610  139.4300  149.4800 C   0  0  0  0  0  0  0  0  0  0  0  0
  142.4020  140.4440  149.6540 O   0  0  0  0  0  0  0  0  0  0  0  0
  144.9130  138.5730  149.3390 H   0  0  0  0  0  0  0  0  0  0  0  0
  142.4480  138.0930  149.2410 C   0  0  1  0  0  3  0  0  0  0  0  0
  142.9550  136.7980  149.8130 C   0  0  2  0  0  3  0  0  0  0  0  0
  141.6090  137.3380  150.2690 C   0  0  0  0  0  0  0  0  0  0  0  0
  141.3800  137.9740  151.6220 C   0  0  0  0  0  1  0  0  0  0  0  0
  140.4080  136.5580  149.7900 C   0  0  0  0  0  1  0  0  0  0  0  0
  144.0450  136.5940  150.7810 C   0  0  0  0  0  3  0  0  0  0  0  0
  145.2650  136.1040  150.4600 C   0  0  0  0  0  0  0  0  0  0  0  0
  145.6280  135.6050  149.0850 C   0  0  0  0  0  1  0  0  0  0  0  0
  146.4090  136.0500  151.4370 C   0  0  0  0  0  1  0  0  0  0  0  0
  145.1970  140.6490  149.5740 C   0  0  0  0  0  2  0  0  0  0  0  0
  146.9250  139.9050  152.9130 C   0  0  0  0  0  0  0  0  0  0  0  0
  146.3600  139.7450  151.6430 C   0  0  0  0  0  3  0  0  0  0  0  0
  145.7780  140.8280  150.9580 C   0  0  0  0  0  0  0  0  0  0  0  0
  145.7870  142.0910  151.5620 C   0  0  0  0  0  3  0  0  0  0  0  0
  146.3500  142.2690  152.8280 C   0  0  0  0  0  3  0  0  0  0  0  0
  146.9100  141.1790  153.5000 C   0  0  0  0  0  0  0  0  0  0  0  0
  148.7560  138.4070  153.1860 C   0  0  0  0  0  1  0  0  0  0  0  0
  147.5050  138.9020  153.6450 O   0  0  0  0  0  0  0  0  0  0  0  0
  147.4570  141.3540  154.7380 O   0  0  0  0  0  0  0  0  0  0  0  0
  146.9230  141.2700  155.5030 H   0  0  0  0  0  0  0  0  0  0  0  0
  1  2  1  0  0  0  0
  1 14  1  0  0  0  0
  2  3  2  0  0  0  0
  4  1  1  0  0  0  0
  5  2  1  1  0  0  0
  5  6  1  0  0  0  0
  5  7  1  0  0  0  0
  6  7  1  0  0  0  0
  6 10  1  1  0  0  0
  7  8  1  0  0  0  0
  9  7  1  0  0  0  0
 11 10  2  0  0  0  0
 11 13  1  0  0  0  0
 12 11  1  0  0  0  0
 14 17  1  0  0  0  0
 15 20  1  0  0  0  0
 15 22  1  0  0  0  0
 16 15  2  0  0  0  0
 17 18  2  0  0  0  0
 17 16  1  0  0  0  0
 18 19  1  0  0  0  0
 19 20  2  0  0  0  0
 20 23  1  0  0  0  0
 21 22  1  0  0  0  0
 23 24  1  0  0  0  0
M  END
>  <MODEL>
8

>  <REMARK>
 VINA RESULT:    -6.585      3.029      6.731
 INTER + INTRA:          -9.295
 INTER:                  -8.342
 INTRA:                  -0.953
 UNBOUND:                -0.593
  Name = CHEMBL124721
  11 active torsions:
  status: ('A' for Active; 'I' for Inactive)
    1  A    between atoms: C_1  and  O_2
    2  A    between atoms: O_2  and  C_3
    3  A    between atoms: C_5  and  C_6
    4  A    between atoms: C_6  and  N_7
    5  A    between atoms: C_8  and  C_10
    6  A    between atoms: C_11  and  C_12
    7  A    between atoms: C_13  and  C_14
    8  A    between atoms: C_13  and  C_15
    9  A    between atoms: C_16  and  C_17
   10  A    between atoms: C_16  and  C_18
   11  A    between atoms: C_21  and  O_22
                            x       y       z     vdW  Elec       q    Type
                         _______ _______ _______ _____ _____    ______ ____

>  <TORSDO>
F 6

>  <SCORE>
-6.585

>  <RMSD_LB>
3.029

>  <RMSD_UB>
6.731

$$$$
CHEMBL124721
 OpenBabel10162523573D

 24 25  0  0  1  0  0  0  0  0999 V2000
  143.3780  138.5040  150.9210 N   0  0  0  0  0  0  0  0  0  0  0  0
  144.4250  139.2100  151.4650 C   0  0  0  0  0  0  0  0  0  0  0  0
  144.8850  138.9710  152.5720 O   0  0  0  0  0  0  0  0  0  0  0  0
  143.0290  138.7660  150.0390 H   0  0  0  0  0  0  0  0  0  0  0  0
  144.9750  140.2650  150.5670 C   0  0  1  0  0  3  0  0  0  0  0  0
  146.3020  140.9460  150.7510 C   0  0  2  0  0  3  0  0  0  0  0  0
  146.0940  140.0310  149.5560 C   0  0  0  0  0  0  0  0  0  0  0  0
  146.6950  138.6480  149.4490 C   0  0  0  0  0  1  0  0  0  0  0  0
  146.0170  140.7290  148.2180 C   0  0  0  0  0  1  0  0  0  0  0  0
  147.3490  140.6530  151.7440 C   0  0  0  0  0  3  0  0  0  0  0  0
  147.3840  141.1800  152.9890 C   0  0  0  0  0  0  0  0  0  0  0  0
  146.4120  142.2220  153.4830 C   0  0  0  0  0  1  0  0  0  0  0  0
  148.3760  140.7450  154.0350 C   0  0  0  0  0  1  0  0  0  0  0  0
  142.7780  137.3880  151.6150 C   0  0  0  0  0  2  0  0  0  0  0  0
  139.0270  137.8310  152.2630 C   0  0  0  0  0  0  0  0  0  0  0  0
  140.2430  137.5190  151.6440 C   0  0  0  0  0  3  0  0  0  0  0  0
  141.4730  137.7570  152.2820 C   0  0  0  0  0  0  0  0  0  0  0  0
  141.4700  138.3000  153.5730 C   0  0  0  0  0  3  0  0  0  0  0  0
  140.2660  138.6150  154.2070 C   0  0  0  0  0  3  0  0  0  0  0  0
  139.0530  138.3860  153.5520 C   0  0  0  0  0  0  0  0  0  0  0  0
  137.7130  137.6260  150.2890 C   0  0  0  0  0  1  0  0  0  0  0  0
  137.7900  137.6360  151.7080 O   0  0  0  0  0  0  0  0  0  0  0  0
  137.8780  138.6960  154.1730 O   0  0  0  0  0  0  0  0  0  0  0  0
  137.8440  138.7590  155.1070 H   0  0  0  0  0  0  0  0  0  0  0  0
  1  2  1  0  0  0  0
  1 14  1  0  0  0  0
  2  3  2  0  0  0  0
  4  1  1  0  0  0  0
  5  6  1  0  0  0  0
  5  2  1  1  0  0  0
  6 10  1  1  0  0  0
  7  5  1  0  0  0  0
  7  6  1  0  0  0  0
  8  7  1  0  0  0  0
  9  7  1  0  0  0  0
 10 11  2  0  0  0  0
 11 12  1  0  0  0  0
 11 13  1  0  0  0  0
 14 17  1  0  0  0  0
 15 20  1  0  0  0  0
 16 15  2  0  0  0  0
 16 17  1  0  0  0  0
 17 18  2  0  0  0  0
 18 19  1  0  0  0  0
 20 23  1  0  0  0  0
 20 19  2  0  0  0  0
 21 22  1  0  0  0  0
 22 15  1  0  0  0  0
 23 24  1  0  0  0  0
M  END
>  <MODEL>
9

>  <REMARK>
 VINA RESULT:    -6.543      1.200      2.286
 INTER + INTRA:          -9.239
 INTER:                  -8.646
 INTRA:                  -0.593
 UNBOUND:                -0.593
  Name = CHEMBL124721
  11 active torsions:
  status: ('A' for Active; 'I' for Inactive)
    1  A    between atoms: C_1  and  O_2
    2  A    between atoms: O_2  and  C_3
    3  A    between atoms: C_5  and  C_6
    4  A    between atoms: C_6  and  N_7
    5  A    between atoms: C_8  and  C_10
    6  A    between atoms: C_11  and  C_12
    7  A    between atoms: C_13  and  C_14
    8  A    between atoms: C_13  and  C_15
    9  A    between atoms: C_16  and  C_17
   10  A    between atoms: C_16  and  C_18
   11  A    between atoms: C_21  and  O_22
                            x       y       z     vdW  Elec       q    Type
                         _______ _______ _______ _____ _____    ______ ____

>  <TORSDO>
F 6

>  <SCORE>
-6.543

>  <RMSD_LB>
1.200

>  <RMSD_UB>
2.286

$$$$
