CHEMBL2268809
 OpenBabel10172500053D

 26 26  0  0  0  0  0  0  0  0999 V2000
  133.2740  134.6390  150.8640 C   0  0  0  0  0  0  0  0  0  0  0  0
  133.6830  135.7430  150.5320 O   0  0  0  0  0  0  0  0  0  0  0  0
  133.2290  134.2010  152.1670 N   0  0  0  0  0  0  0  0  0  0  0  0
  132.9500  133.2750  152.3510 H   0  0  0  0  0  0  0  0  0  0  0  0
  132.7630  133.6370  149.8440 C   0  0  0  0  0  2  0  0  0  0  0  0
  132.6870  134.2120  148.4320 C   0  0  0  0  0  2  0  0  0  0  0  0
  133.5330  133.4160  147.4360 C   0  0  0  0  0  2  0  0  0  0  0  0
  134.5190  132.5080  148.1660 C   0  0  0  0  0  2  0  0  0  0  0  0
  135.6750  132.1130  147.2520 C   0  0  0  0  0  2  0  0  0  0  0  0
  136.4620  133.3430  146.8070 C   0  0  0  0  0  2  0  0  0  0  0  0
  136.8940  133.2100  145.3490 C   0  0  0  0  0  2  0  0  0  0  0  0
  135.7790  131.6890  143.6940 C   0  0  0  0  0  1  0  0  0  0  0  0
  135.6900  133.0120  144.4350 C   0  0  0  0  0  2  0  0  0  0  0  0
  133.5800  135.0620  153.2770 C   0  0  0  0  0  2  0  0  0  0  0  0
  134.7840  134.5460  154.0710 C   0  0  0  0  0  2  0  0  0  0  0  0
  136.0570  135.3480  153.7790 C   0  0  0  0  0  2  0  0  0  0  0  0
  136.5690  136.1030  154.9810 C   0  0  0  0  0  0  0  0  0  0  0  0
  136.0510  135.8450  156.2520 C   0  0  0  0  0  3  0  0  0  0  0  0
  136.5210  136.5330  157.3740 C   0  0  0  0  0  3  0  0  0  0  0  0
  137.5380  137.4870  157.2540 C   0  0  0  0  0  0  0  0  0  0  0  0
  138.0900  137.7270  155.9840 C   0  0  0  0  0  0  0  0  0  0  0  0
  137.5780  137.0650  154.8560 C   0  0  0  0  0  3  0  0  0  0  0  0
  138.0080  138.2330  158.3020 O   0  0  0  0  0  0  0  0  0  0  0  0
  137.6110  137.8790  159.6180 C   0  0  0  0  0  1  0  0  0  0  0  0
  139.0950  138.6190  155.6960 O   0  0  0  0  0  0  0  0  0  0  0  0
  139.2580  138.9300  154.3150 C   0  0  0  0  0  1  0  0  0  0  0  0
  1  3  1  0  0  0  0
  2  1  2  0  0  0  0
  3  4  1  0  0  0  0
  3 14  1  0  0  0  0
  5  1  1  0  0  0  0
  6  5  1  0  0  0  0
  7  8  1  0  0  0  0
  7  6  1  0  0  0  0
  9  8  1  0  0  0  0
 10  9  1  0  0  0  0
 11 10  1  0  0  0  0
 12 13  1  0  0  0  0
 13 11  1  0  0  0  0
 14 15  1  0  0  0  0
 16 15  1  0  0  0  0
 16 17  1  0  0  0  0
 17 18  1  0  0  0  0
 18 19  2  0  0  0  0
 20 19  1  0  0  0  0
 20 23  1  0  0  0  0
 21 20  2  0  0  0  0
 22 17  2  0  0  0  0
 22 21  1  0  0  0  0
 23 24  1  0  0  0  0
 25 21  1  0  0  0  0
 26 25  1  0  0  0  0
M  END
>  <MODEL>
1

>  <REMARK>
 VINA RESULT:    -5.808      0.000      0.000
 INTER + INTRA:         -12.679
 INTER:                 -11.640
 INTRA:                  -1.038
 UNBOUND:                -2.116
  Name = CHEMBL2268809
  17 active torsions:
  status: ('A' for Active; 'I' for Inactive)
    1  A    between atoms: C_1  and  C_2
    2  A    between atoms: C_2  and  C_3
    3  A    between atoms: C_3  and  C_4
    4  A    between atoms: C_4  and  C_5
    5  A    between atoms: C_5  and  C_6
    6  A    between atoms: C_6  and  C_7
    7  A    between atoms: C_7  and  C_8
    8  A    between atoms: C_8  and  C_9
    9  A    between atoms: C_9  and  C_10
   10  A    between atoms: N_12  and  C_13
   11  A    between atoms: C_13  and  C_14
   12  A    between atoms: C_14  and  C_15
   13  A    between atoms: C_15  and  C_16
   14  A    between atoms: C_19  and  O_20
   15  A    between atoms: O_20  and  C_21
   16  A    between atoms: C_22  and  O_23
   17  A    between atoms: O_23  and  C_24
                            x       y       z     vdW  Elec       q    Type
                         _______ _______ _______ _____ _____    ______ ____

>  <TORSDO>
F 14

>  <SCORE>
-5.808

>  <RMSD_LB>
0.000

>  <RMSD_UB>
0.000

$$$$
CHEMBL2268809
 OpenBabel10172500053D

 26 26  0  0  0  0  0  0  0  0999 V2000
  143.9980  139.0590  153.7010 C   0  0  0  0  0  0  0  0  0  0  0  0
  144.2950  137.8880  153.8920 O   0  0  0  0  0  0  0  0  0  0  0  0
  142.8460  139.6430  154.1740 N   0  0  0  0  0  0  0  0  0  0  0  0
  142.6430  140.5730  153.9220 H   0  0  0  0  0  0  0  0  0  0  0  0
  144.8980  139.9920  152.9100 C   0  0  0  0  0  2  0  0  0  0  0  0
  144.3040  140.3900  151.5610 C   0  0  0  0  0  2  0  0  0  0  0  0
  144.9980  141.6140  150.9600 C   0  0  0  0  0  2  0  0  0  0  0  0
  145.8540  141.2190  149.7610 C   0  0  0  0  0  2  0  0  0  0  0  0
  147.3270  141.1310  150.1470 C   0  0  0  0  0  2  0  0  0  0  0  0
  147.7320  142.3130  151.0220 C   0  0  0  0  0  2  0  0  0  0  0  0
  148.9320  141.9550  151.8950 C   0  0  0  0  0  2  0  0  0  0  0  0
  147.8660  141.8380  154.1640 C   0  0  0  0  0  1  0  0  0  0  0  0
  148.5200  141.0440  153.0470 C   0  0  0  0  0  2  0  0  0  0  0  0
  141.9250  138.9300  155.0330 C   0  0  0  0  0  2  0  0  0  0  0  0
  140.8390  138.1840  154.2500 C   0  0  0  0  0  2  0  0  0  0  0  0
  139.4600  138.8330  154.4120 C   0  0  0  0  0  2  0  0  0  0  0  0
  138.4950  137.9800  155.1980 C   0  0  0  0  0  0  0  0  0  0  0  0
  138.7520  137.6690  156.5340 C   0  0  0  0  0  3  0  0  0  0  0  0
  137.8630  136.8850  157.2750 C   0  0  0  0  0  3  0  0  0  0  0  0
  136.6800  136.4070  156.6990 C   0  0  0  0  0  0  0  0  0  0  0  0
  136.3960  136.7460  155.3650 C   0  0  0  0  0  0  0  0  0  0  0  0
  137.3180  137.4940  154.6160 C   0  0  0  0  0  3  0  0  0  0  0  0
  135.7920  135.5930  157.3500 O   0  0  0  0  0  0  0  0  0  0  0  0
  136.1750  135.0330  158.5970 C   0  0  0  0  0  1  0  0  0  0  0  0
  135.2810  136.3690  154.6560 O   0  0  0  0  0  0  0  0  0  0  0  0
  135.4350  135.2050  153.8490 C   0  0  0  0  0  1  0  0  0  0  0  0
  1  2  2  0  0  0  0
  1  3  1  0  0  0  0
  3 14  1  0  0  0  0
  4  3  1  0  0  0  0
  5  1  1  0  0  0  0
  6  5  1  0  0  0  0
  7  6  1  0  0  0  0
  8  9  1  0  0  0  0
  8  7  1  0  0  0  0
  9 10  1  0  0  0  0
 10 11  1  0  0  0  0
 11 13  1  0  0  0  0
 13 12  1  0  0  0  0
 15 16  1  0  0  0  0
 15 14  1  0  0  0  0
 16 17  1  0  0  0  0
 17 18  1  0  0  0  0
 18 19  2  0  0  0  0
 20 19  1  0  0  0  0
 20 23  1  0  0  0  0
 21 20  2  0  0  0  0
 22 17  2  0  0  0  0
 22 21  1  0  0  0  0
 23 24  1  0  0  0  0
 25 21  1  0  0  0  0
 26 25  1  0  0  0  0
M  END
>  <MODEL>
2

>  <REMARK>
 VINA RESULT:    -5.648      5.955     10.647
 INTER + INTRA:         -12.386
 INTER:                 -11.131
 INTRA:                  -1.255
 UNBOUND:                -2.116
  Name = CHEMBL2268809
  17 active torsions:
  status: ('A' for Active; 'I' for Inactive)
    1  A    between atoms: C_1  and  C_2
    2  A    between atoms: C_2  and  C_3
    3  A    between atoms: C_3  and  C_4
    4  A    between atoms: C_4  and  C_5
    5  A    between atoms: C_5  and  C_6
    6  A    between atoms: C_6  and  C_7
    7  A    between atoms: C_7  and  C_8
    8  A    between atoms: C_8  and  C_9
    9  A    between atoms: C_9  and  C_10
   10  A    between atoms: N_12  and  C_13
   11  A    between atoms: C_13  and  C_14
   12  A    between atoms: C_14  and  C_15
   13  A    between atoms: C_15  and  C_16
   14  A    between atoms: C_19  and  O_20
   15  A    between atoms: O_20  and  C_21
   16  A    between atoms: C_22  and  O_23
   17  A    between atoms: O_23  and  C_24
                            x       y       z     vdW  Elec       q    Type
                         _______ _______ _______ _____ _____    ______ ____

>  <TORSDO>
F 14

>  <SCORE>
-5.648

>  <RMSD_LB>
5.955

>  <RMSD_UB>
10.647

$$$$
CHEMBL2268809
 OpenBabel10172500053D

 26 26  0  0  0  0  0  0  0  0999 V2000
  145.0630  138.7070  148.7210 C   0  0  0  0  0  0  0  0  0  0  0  0
  144.3200  138.2460  147.8650 O   0  0  0  0  0  0  0  0  0  0  0  0
  145.0320  138.3300  150.0430 N   0  0  0  0  0  0  0  0  0  0  0  0
  145.6150  138.7940  150.6860 H   0  0  0  0  0  0  0  0  0  0  0  0
  146.1100  139.7550  148.3890 C   0  0  0  0  0  2  0  0  0  0  0  0
  146.6080  140.5090  149.6200 C   0  0  0  0  0  2  0  0  0  0  0  0
  146.5110  142.0260  149.4470 C   0  0  0  0  0  2  0  0  0  0  0  0
  145.8540  142.6700  150.6650 C   0  0  0  0  0  2  0  0  0  0  0  0
  145.7070  141.6630  151.8010 C   0  0  0  0  0  2  0  0  0  0  0  0
  146.1800  142.2610  153.1230 C   0  0  0  0  0  2  0  0  0  0  0  0
  147.6330  141.8850  153.3980 C   0  0  0  0  0  2  0  0  0  0  0  0
  148.5040  139.6850  154.2350 C   0  0  0  0  0  1  0  0  0  0  0  0
  147.8960  140.4220  153.0540 C   0  0  0  0  0  2  0  0  0  0  0  0
  144.1670  137.2700  150.5160 C   0  0  0  0  0  2  0  0  0  0  0  0
  143.0430  137.7810  151.4240 C   0  0  0  0  0  2  0  0  0  0  0  0
  141.6670  137.2620  150.9890 C   0  0  0  0  0  2  0  0  0  0  0  0
  140.5740  137.5920  151.9750 C   0  0  0  0  0  0  0  0  0  0  0  0
  139.2370  137.3440  151.6580 C   0  0  0  0  0  3  0  0  0  0  0  0
  138.2150  137.6400  152.5660 C   0  0  0  0  0  3  0  0  0  0  0  0
  138.5100  138.1760  153.8240 C   0  0  0  0  0  0  0  0  0  0  0  0
  139.8560  138.3940  154.1650 C   0  0  0  0  0  0  0  0  0  0  0  0
  140.8710  138.1380  153.2290 C   0  0  0  0  0  3  0  0  0  0  0  0
  137.5570  138.5370  154.7390 O   0  0  0  0  0  0  0  0  0  0  0  0
  136.8200  137.5120  155.3890 C   0  0  0  0  0  1  0  0  0  0  0  0
  140.3140  138.9030  155.3570 O   0  0  0  0  0  0  0  0  0  0  0  0
  141.7310  138.9770  155.4840 C   0  0  0  0  0  1  0  0  0  0  0  0
  1  3  1  0  0  0  0
  2  1  2  0  0  0  0
  3 14  1  0  0  0  0
  3  4  1  0  0  0  0
  5  1  1  0  0  0  0
  5  6  1  0  0  0  0
  7  6  1  0  0  0  0
  7  8  1  0  0  0  0
  8  9  1  0  0  0  0
  9 10  1  0  0  0  0
 10 11  1  0  0  0  0
 13 11  1  0  0  0  0
 13 12  1  0  0  0  0
 14 15  1  0  0  0  0
 16 15  1  0  0  0  0
 16 17  1  0  0  0  0
 17 22  1  0  0  0  0
 18 17  2  0  0  0  0
 18 19  1  0  0  0  0
 19 20  2  0  0  0  0
 20 21  1  0  0  0  0
 20 23  1  0  0  0  0
 21 25  1  0  0  0  0
 22 21  2  0  0  0  0
 23 24  1  0  0  0  0
 25 26  1  0  0  0  0
M  END
>  <MODEL>
3

>  <REMARK>
 VINA RESULT:    -5.591      6.699     11.132
 INTER + INTRA:         -12.282
 INTER:                 -10.964
 INTRA:                  -1.318
 UNBOUND:                -2.116
  Name = CHEMBL2268809
  17 active torsions:
  status: ('A' for Active; 'I' for Inactive)
    1  A    between atoms: C_1  and  C_2
    2  A    between atoms: C_2  and  C_3
    3  A    between atoms: C_3  and  C_4
    4  A    between atoms: C_4  and  C_5
    5  A    between atoms: C_5  and  C_6
    6  A    between atoms: C_6  and  C_7
    7  A    between atoms: C_7  and  C_8
    8  A    between atoms: C_8  and  C_9
    9  A    between atoms: C_9  and  C_10
   10  A    between atoms: N_12  and  C_13
   11  A    between atoms: C_13  and  C_14
   12  A    between atoms: C_14  and  C_15
   13  A    between atoms: C_15  and  C_16
   14  A    between atoms: C_19  and  O_20
   15  A    between atoms: O_20  and  C_21
   16  A    between atoms: C_22  and  O_23
   17  A    between atoms: O_23  and  C_24
                            x       y       z     vdW  Elec       q    Type
                         _______ _______ _______ _____ _____    ______ ____

>  <TORSDO>
F 14

>  <SCORE>
-5.591

>  <RMSD_LB>
6.699

>  <RMSD_UB>
11.132

$$$$
CHEMBL2268809
 OpenBabel10172500053D

 26 26  0  0  0  0  0  0  0  0999 V2000
  140.1750  137.9130  152.7380 C   0  0  0  0  0  0  0  0  0  0  0  0
  139.0280  138.0770  152.3480 O   0  0  0  0  0  0  0  0  0  0  0  0
  140.5870  138.1580  154.0280 N   0  0  0  0  0  0  0  0  0  0  0  0
  141.5420  138.0680  154.2500 H   0  0  0  0  0  0  0  0  0  0  0  0
  141.2690  137.4100  151.8130 C   0  0  0  0  0  2  0  0  0  0  0  0
  142.6730  137.6940  152.3420 C   0  0  0  0  0  2  0  0  0  0  0  0
  143.3110  138.9100  151.6670 C   0  0  0  0  0  2  0  0  0  0  0  0
  144.7620  139.0760  152.1080 C   0  0  0  0  0  2  0  0  0  0  0  0
  144.8460  139.8060  153.4450 C   0  0  0  0  0  2  0  0  0  0  0  0
  146.2320  140.4090  153.6500 C   0  0  0  0  0  2  0  0  0  0  0  0
  146.2420  141.8860  153.2630 C   0  0  0  0  0  2  0  0  0  0  0  0
  146.5490  142.2090  150.7930 C   0  0  0  0  0  1  0  0  0  0  0  0
  147.2430  142.1530  152.1440 C   0  0  0  0  0  2  0  0  0  0  0  0
  139.6560  138.5450  155.0670 C   0  0  0  0  0  2  0  0  0  0  0  0
  139.4050  137.4260  156.0850 C   0  0  0  0  0  2  0  0  0  0  0  0
  138.0220  137.5360  156.7360 C   0  0  0  0  0  2  0  0  0  0  0  0
  136.9930  136.6410  156.0900 C   0  0  0  0  0  0  0  0  0  0  0  0
  137.0270  136.3990  154.7160 C   0  0  0  0  0  3  0  0  0  0  0  0
  136.0830  135.5660  154.1070 C   0  0  0  0  0  3  0  0  0  0  0  0
  135.0900  134.9380  154.8660 C   0  0  0  0  0  0  0  0  0  0  0  0
  135.0710  135.1470  156.2560 C   0  0  0  0  0  0  0  0  0  0  0  0
  135.9940  136.0220  156.8500 C   0  0  0  0  0  3  0  0  0  0  0  0
  134.1050  134.1530  154.3290 O   0  0  0  0  0  0  0  0  0  0  0  0
  134.0310  134.0300  152.9160 C   0  0  0  0  0  1  0  0  0  0  0  0
  134.1730  134.6010  157.1420 O   0  0  0  0  0  0  0  0  0  0  0  0
  134.4160  134.8910  158.5150 C   0  0  0  0  0  1  0  0  0  0  0  0
  1  3  1  0  0  0  0
  2  1  2  0  0  0  0
  3  4  1  0  0  0  0
  3 14  1  0  0  0  0
  5  6  1  0  0  0  0
  5  1  1  0  0  0  0
  7  8  1  0  0  0  0
  7  6  1  0  0  0  0
  8  9  1  0  0  0  0
  9 10  1  0  0  0  0
 11 10  1  0  0  0  0
 12 13  1  0  0  0  0
 13 11  1  0  0  0  0
 14 15  1  0  0  0  0
 15 16  1  0  0  0  0
 17 16  1  0  0  0  0
 17 22  1  0  0  0  0
 18 17  2  0  0  0  0
 19 18  1  0  0  0  0
 19 20  2  0  0  0  0
 20 21  1  0  0  0  0
 21 22  2  0  0  0  0
 21 25  1  0  0  0  0
 23 20  1  0  0  0  0
 24 23  1  0  0  0  0
 25 26  1  0  0  0  0
M  END
>  <MODEL>
4

>  <REMARK>
 VINA RESULT:    -5.360      4.725      9.449
 INTER + INTRA:         -11.864
 INTER:                 -10.930
 INTRA:                  -0.934
 UNBOUND:                -2.116
  Name = CHEMBL2268809
  17 active torsions:
  status: ('A' for Active; 'I' for Inactive)
    1  A    between atoms: C_1  and  C_2
    2  A    between atoms: C_2  and  C_3
    3  A    between atoms: C_3  and  C_4
    4  A    between atoms: C_4  and  C_5
    5  A    between atoms: C_5  and  C_6
    6  A    between atoms: C_6  and  C_7
    7  A    between atoms: C_7  and  C_8
    8  A    between atoms: C_8  and  C_9
    9  A    between atoms: C_9  and  C_10
   10  A    between atoms: N_12  and  C_13
   11  A    between atoms: C_13  and  C_14
   12  A    between atoms: C_14  and  C_15
   13  A    between atoms: C_15  and  C_16
   14  A    between atoms: C_19  and  O_20
   15  A    between atoms: O_20  and  C_21
   16  A    between atoms: C_22  and  O_23
   17  A    between atoms: O_23  and  C_24
                            x       y       z     vdW  Elec       q    Type
                         _______ _______ _______ _____ _____    ______ ____

>  <TORSDO>
F 14

>  <SCORE>
-5.360

>  <RMSD_LB>
4.725

>  <RMSD_UB>
9.449

$$$$
CHEMBL2268809
 OpenBabel10172500053D

 26 26  0  0  0  0  0  0  0  0999 V2000
  145.7540  140.5870  149.2440 C   0  0  0  0  0  0  0  0  0  0  0  0
  144.9780  139.8460  149.8320 O   0  0  0  0  0  0  0  0  0  0  0  0
  146.0030  140.5170  147.8930 N   0  0  0  0  0  0  0  0  0  0  0  0
  146.6910  141.1020  147.5030 H   0  0  0  0  0  0  0  0  0  0  0  0
  146.5240  141.6760  149.9710 C   0  0  0  0  0  2  0  0  0  0  0  0
  145.6340  142.5410  150.8590 C   0  0  0  0  0  2  0  0  0  0  0  0
  145.9550  142.3670  152.3450 C   0  0  0  0  0  2  0  0  0  0  0  0
  147.3980  141.9110  152.5390 C   0  0  0  0  0  2  0  0  0  0  0  0
  147.6830  141.6140  154.0080 C   0  0  0  0  0  2  0  0  0  0  0  0
  148.0220  140.1400  154.2100 C   0  0  0  0  0  2  0  0  0  0  0  0
  147.2740  139.2700  153.2030 C   0  0  0  0  0  2  0  0  0  0  0  0
  149.1090  137.6420  153.7320 C   0  0  0  0  0  1  0  0  0  0  0  0
  148.1740  138.1670  152.6560 C   0  0  0  0  0  2  0  0  0  0  0  0
  145.2810  139.6070  147.0290 C   0  0  0  0  0  2  0  0  0  0  0  0
  146.1530  138.4540  146.5190 C   0  0  0  0  0  2  0  0  0  0  0  0
  147.5080  138.3950  147.2320 C   0  0  0  0  0  2  0  0  0  0  0  0
  148.6760  138.3640  146.2780 C   0  0  0  0  0  0  0  0  0  0  0  0
  148.7270  139.2410  145.1930 C   0  0  0  0  0  3  0  0  0  0  0  0
  149.8080  139.2260  144.3060 C   0  0  0  0  0  3  0  0  0  0  0  0
  150.8760  138.3420  144.4940 C   0  0  0  0  0  0  0  0  0  0  0  0
  150.8490  137.4810  145.6050 C   0  0  0  0  0  0  0  0  0  0  0  0
  149.7380  137.4710  146.4630 C   0  0  0  0  0  3  0  0  0  0  0  0
  151.9380  138.2390  143.6360 O   0  0  0  0  0  0  0  0  0  0  0  0
  151.7920  137.4450  142.4690 C   0  0  0  0  0  1  0  0  0  0  0  0
  151.8170  136.5640  145.9380 O   0  0  0  0  0  0  0  0  0  0  0  0
  151.8190  136.1450  147.3000 C   0  0  0  0  0  1  0  0  0  0  0  0
  1  2  2  0  0  0  0
  1  5  1  0  0  0  0
  3  1  1  0  0  0  0
  4  3  1  0  0  0  0
  5  6  1  0  0  0  0
  6  7  1  0  0  0  0
  7  8  1  0  0  0  0
  8  9  1  0  0  0  0
  9 10  1  0  0  0  0
 11 10  1  0  0  0  0
 13 11  1  0  0  0  0
 13 12  1  0  0  0  0
 14  3  1  0  0  0  0
 15 14  1  0  0  0  0
 15 16  1  0  0  0  0
 17 22  1  0  0  0  0
 17 16  1  0  0  0  0
 18 17  2  0  0  0  0
 19 20  2  0  0  0  0
 19 18  1  0  0  0  0
 20 21  1  0  0  0  0
 21 25  1  0  0  0  0
 21 22  2  0  0  0  0
 23 20  1  0  0  0  0
 24 23  1  0  0  0  0
 25 26  1  0  0  0  0
M  END
>  <MODEL>
5

>  <REMARK>
 VINA RESULT:    -5.127     11.998     16.177
 INTER + INTRA:         -11.439
 INTER:                 -10.269
 INTRA:                  -1.171
 UNBOUND:                -2.116
  Name = CHEMBL2268809
  17 active torsions:
  status: ('A' for Active; 'I' for Inactive)
    1  A    between atoms: C_1  and  C_2
    2  A    between atoms: C_2  and  C_3
    3  A    between atoms: C_3  and  C_4
    4  A    between atoms: C_4  and  C_5
    5  A    between atoms: C_5  and  C_6
    6  A    between atoms: C_6  and  C_7
    7  A    between atoms: C_7  and  C_8
    8  A    between atoms: C_8  and  C_9
    9  A    between atoms: C_9  and  C_10
   10  A    between atoms: N_12  and  C_13
   11  A    between atoms: C_13  and  C_14
   12  A    between atoms: C_14  and  C_15
   13  A    between atoms: C_15  and  C_16
   14  A    between atoms: C_19  and  O_20
   15  A    between atoms: O_20  and  C_21
   16  A    between atoms: C_22  and  O_23
   17  A    between atoms: O_23  and  C_24
                            x       y       z     vdW  Elec       q    Type
                         _______ _______ _______ _____ _____    ______ ____

>  <TORSDO>
F 14

>  <SCORE>
-5.127

>  <RMSD_LB>
11.998

>  <RMSD_UB>
16.177

$$$$
CHEMBL2268809
 OpenBabel10172500053D

 26 26  0  0  0  0  0  0  0  0999 V2000
  136.7700  136.4520  149.5580 C   0  0  0  0  0  0  0  0  0  0  0  0
  136.4780  137.5070  149.0110 O   0  0  0  0  0  0  0  0  0  0  0  0
  137.6670  136.3510  150.5950 N   0  0  0  0  0  0  0  0  0  0  0  0
  137.9020  135.4590  150.9390 H   0  0  0  0  0  0  0  0  0  0  0  0
  136.1490  135.1340  149.1320 C   0  0  0  0  0  2  0  0  0  0  0  0
  136.5520  134.7150  147.7190 C   0  0  0  0  0  2  0  0  0  0  0  0
  135.9010  133.3960  147.2990 C   0  0  0  0  0  2  0  0  0  0  0  0
  134.4080  133.5840  147.0440 C   0  0  0  0  0  2  0  0  0  0  0  0
  133.5800  132.8150  148.0680 C   0  0  0  0  0  2  0  0  0  0  0  0
  132.6450  133.7530  148.8270 C   0  0  0  0  0  2  0  0  0  0  0  0
  132.8870  133.6580  150.3310 C   0  0  0  0  0  2  0  0  0  0  0  0
  132.7950  136.1520  150.0680 C   0  0  0  0  0  1  0  0  0  0  0  0
  132.5900  134.9860  151.0200 C   0  0  0  0  0  2  0  0  0  0  0  0
  138.2760  137.5190  151.1960 C   0  0  0  0  0  2  0  0  0  0  0  0
  139.7920  137.5770  150.9800 C   0  0  0  0  0  2  0  0  0  0  0  0
  140.5560  137.7900  152.2910 C   0  0  0  0  0  2  0  0  0  0  0  0
  142.0360  137.5250  152.1620 C   0  0  0  0  0  0  0  0  0  0  0  0
  142.5730  137.0870  150.9510 C   0  0  0  0  0  3  0  0  0  0  0  0
  143.9440  136.8430  150.8170 C   0  0  0  0  0  3  0  0  0  0  0  0
  144.8150  137.0500  151.8930 C   0  0  0  0  0  0  0  0  0  0  0  0
  144.2860  137.5250  153.1060 C   0  0  0  0  0  0  0  0  0  0  0  0
  142.9030  137.7220  153.2430 C   0  0  0  0  0  3  0  0  0  0  0  0
  146.1570  136.7820  151.8470 O   0  0  0  0  0  0  0  0  0  0  0  0
  147.0100  137.7060  151.1870 C   0  0  0  0  0  1  0  0  0  0  0  0
  145.0020  137.7880  154.2500 O   0  0  0  0  0  0  0  0  0  0  0  0
  145.2810  139.1630  154.4930 C   0  0  0  0  0  1  0  0  0  0  0  0
  1  3  1  0  0  0  0
  2  1  2  0  0  0  0
  3  4  1  0  0  0  0
  3 14  1  0  0  0  0
  5  1  1  0  0  0  0
  6  5  1  0  0  0  0
  7  6  1  0  0  0  0
  8  7  1  0  0  0  0
  8  9  1  0  0  0  0
  9 10  1  0  0  0  0
 10 11  1  0  0  0  0
 11 13  1  0  0  0  0
 12 13  1  0  0  0  0
 15 14  1  0  0  0  0
 15 16  1  0  0  0  0
 17 16  1  0  0  0  0
 17 22  1  0  0  0  0
 18 17  2  0  0  0  0
 19 18  1  0  0  0  0
 19 20  2  0  0  0  0
 20 21  1  0  0  0  0
 21 22  2  0  0  0  0
 21 25  1  0  0  0  0
 23 20  1  0  0  0  0
 24 23  1  0  0  0  0
 25 26  1  0  0  0  0
M  END
>  <MODEL>
6

>  <REMARK>
 VINA RESULT:    -5.035      4.406      6.650
 INTER + INTRA:         -11.273
 INTER:                 -10.073
 INTRA:                  -1.200
 UNBOUND:                -2.116
  Name = CHEMBL2268809
  17 active torsions:
  status: ('A' for Active; 'I' for Inactive)
    1  A    between atoms: C_1  and  C_2
    2  A    between atoms: C_2  and  C_3
    3  A    between atoms: C_3  and  C_4
    4  A    between atoms: C_4  and  C_5
    5  A    between atoms: C_5  and  C_6
    6  A    between atoms: C_6  and  C_7
    7  A    between atoms: C_7  and  C_8
    8  A    between atoms: C_8  and  C_9
    9  A    between atoms: C_9  and  C_10
   10  A    between atoms: N_12  and  C_13
   11  A    between atoms: C_13  and  C_14
   12  A    between atoms: C_14  and  C_15
   13  A    between atoms: C_15  and  C_16
   14  A    between atoms: C_19  and  O_20
   15  A    between atoms: O_20  and  C_21
   16  A    between atoms: C_22  and  O_23
   17  A    between atoms: O_23  and  C_24
                            x       y       z     vdW  Elec       q    Type
                         _______ _______ _______ _____ _____    ______ ____

>  <TORSDO>
F 14

>  <SCORE>
-5.035

>  <RMSD_LB>
4.406

>  <RMSD_UB>
6.650

$$$$
CHEMBL2268809
 OpenBabel10172500053D

 26 26  0  0  0  0  0  0  0  0999 V2000
  142.8130  139.1740  147.7000 C   0  0  0  0  0  0  0  0  0  0  0  0
  142.0990  138.8060  146.7780 O   0  0  0  0  0  0  0  0  0  0  0  0
  142.3370  139.5160  148.9450 N   0  0  0  0  0  0  0  0  0  0  0  0
  142.9650  139.8690  149.6160 H   0  0  0  0  0  0  0  0  0  0  0  0
  144.3190  139.2850  147.5490 C   0  0  0  0  0  2  0  0  0  0  0  0
  144.9900  139.9540  148.7470 C   0  0  0  0  0  2  0  0  0  0  0  0
  146.2880  140.6650  148.3610 C   0  0  0  0  0  2  0  0  0  0  0  0
  146.6190  141.7710  149.3580 C   0  0  0  0  0  2  0  0  0  0  0  0
  146.9470  141.1890  150.7290 C   0  0  0  0  0  2  0  0  0  0  0  0
  147.4340  142.2770  151.6810 C   0  0  0  0  0  2  0  0  0  0  0  0
  146.5560  142.3380  152.9280 C   0  0  0  0  0  2  0  0  0  0  0  0
  148.7000  141.9830  154.1840 C   0  0  0  0  0  1  0  0  0  0  0  0
  147.2240  141.6330  154.1040 C   0  0  0  0  0  2  0  0  0  0  0  0
  140.9400  139.3720  149.2970 C   0  0  0  0  0  2  0  0  0  0  0  0
  140.6790  138.1700  150.2100 C   0  0  0  0  0  2  0  0  0  0  0  0
  141.7640  137.0950  150.0760 C   0  0  0  0  0  2  0  0  0  0  0  0
  142.7750  137.1340  151.1960 C   0  0  0  0  0  0  0  0  0  0  0  0
  142.3900  137.5090  152.4840 C   0  0  0  0  0  3  0  0  0  0  0  0
  143.3160  137.5430  153.5310 C   0  0  0  0  0  3  0  0  0  0  0  0
  144.6510  137.1830  153.3160 C   0  0  0  0  0  0  0  0  0  0  0  0
  145.0390  136.7690  152.0300 C   0  0  0  0  0  0  0  0  0  0  0  0
  144.1120  136.7840  150.9750 C   0  0  0  0  0  3  0  0  0  0  0  0
  145.6200  137.2430  154.2830 O   0  0  0  0  0  0  0  0  0  0  0  0
  146.5970  138.2700  154.2000 C   0  0  0  0  0  1  0  0  0  0  0  0
  146.3020  136.3770  151.6550 O   0  0  0  0  0  0  0  0  0  0  0  0
  146.8970  137.1490  150.6160 C   0  0  0  0  0  1  0  0  0  0  0  0
  1  3  1  0  0  0  0
  2  1  2  0  0  0  0
  3 14  1  0  0  0  0
  3  4  1  0  0  0  0
  5  1  1  0  0  0  0
  5  6  1  0  0  0  0
  7  6  1  0  0  0  0
  7  8  1  0  0  0  0
  8  9  1  0  0  0  0
  9 10  1  0  0  0  0
 10 11  1  0  0  0  0
 11 13  1  0  0  0  0
 13 12  1  0  0  0  0
 14 15  1  0  0  0  0
 16 15  1  0  0  0  0
 16 17  1  0  0  0  0
 17 18  1  0  0  0  0
 18 19  2  0  0  0  0
 20 19  1  0  0  0  0
 20 23  1  0  0  0  0
 21 20  2  0  0  0  0
 22 17  2  0  0  0  0
 22 21  1  0  0  0  0
 24 23  1  0  0  0  0
 25 21  1  0  0  0  0
 26 25  1  0  0  0  0
M  END
>  <MODEL>
7

>  <REMARK>
 VINA RESULT:    -4.992      8.062     11.666
 INTER + INTRA:         -11.194
 INTER:                 -10.019
 INTRA:                  -1.176
 UNBOUND:                -2.116
  Name = CHEMBL2268809
  17 active torsions:
  status: ('A' for Active; 'I' for Inactive)
    1  A    between atoms: C_1  and  C_2
    2  A    between atoms: C_2  and  C_3
    3  A    between atoms: C_3  and  C_4
    4  A    between atoms: C_4  and  C_5
    5  A    between atoms: C_5  and  C_6
    6  A    between atoms: C_6  and  C_7
    7  A    between atoms: C_7  and  C_8
    8  A    between atoms: C_8  and  C_9
    9  A    between atoms: C_9  and  C_10
   10  A    between atoms: N_12  and  C_13
   11  A    between atoms: C_13  and  C_14
   12  A    between atoms: C_14  and  C_15
   13  A    between atoms: C_15  and  C_16
   14  A    between atoms: C_19  and  O_20
   15  A    between atoms: O_20  and  C_21
   16  A    between atoms: C_22  and  O_23
   17  A    between atoms: O_23  and  C_24
                            x       y       z     vdW  Elec       q    Type
                         _______ _______ _______ _____ _____    ______ ____

>  <TORSDO>
F 14

>  <SCORE>
-4.992

>  <RMSD_LB>
8.062

>  <RMSD_UB>
11.666

$$$$
CHEMBL2268809
 OpenBabel10172500053D

 26 26  0  0  0  0  0  0  0  0999 V2000
  138.7870  137.6360  151.9370 C   0  0  0  0  0  0  0  0  0  0  0  0
  138.5840  137.8540  153.1230 O   0  0  0  0  0  0  0  0  0  0  0  0
  137.8870  137.0030  151.1110 N   0  0  0  0  0  0  0  0  0  0  0  0
  138.1490  136.8020  150.1840 H   0  0  0  0  0  0  0  0  0  0  0  0
  140.0770  138.0580  151.2560 C   0  0  0  0  0  2  0  0  0  0  0  0
  141.3240  137.6340  152.0300 C   0  0  0  0  0  2  0  0  0  0  0  0
  142.6130  138.1140  151.3590 C   0  0  0  0  0  2  0  0  0  0  0  0
  142.8200  139.6090  151.5870 C   0  0  0  0  0  2  0  0  0  0  0  0
  144.3050  139.9530  151.6290 C   0  0  0  0  0  2  0  0  0  0  0  0
  144.6320  141.0760  150.6500 C   0  0  0  0  0  2  0  0  0  0  0  0
  145.5850  142.0860  151.2830 C   0  0  0  0  0  2  0  0  0  0  0  0
  146.3780  142.1910  153.6620 C   0  0  0  0  0  1  0  0  0  0  0  0
  146.4530  141.4270  152.3500 C   0  0  0  0  0  2  0  0  0  0  0  0
  136.5660  136.6250  151.5670 C   0  0  0  0  0  2  0  0  0  0  0  0
  136.2160  135.1700  151.2330 C   0  0  0  0  0  2  0  0  0  0  0  0
  134.7040  134.9530  151.1080 C   0  0  0  0  0  2  0  0  0  0  0  0
  134.1310  135.5160  149.8300 C   0  0  0  0  0  0  0  0  0  0  0  0
  133.1530  136.5110  149.8700 C   0  0  0  0  0  3  0  0  0  0  0  0
  132.6200  137.0440  148.6930 C   0  0  0  0  0  3  0  0  0  0  0  0
  133.0670  136.6040  147.4420 C   0  0  0  0  0  0  0  0  0  0  0  0
  134.0770  135.6280  147.3930 C   0  0  0  0  0  0  0  0  0  0  0  0
  134.5730  135.0660  148.5800 C   0  0  0  0  0  3  0  0  0  0  0  0
  132.5510  137.0450  146.2520 O   0  0  0  0  0  0  0  0  0  0  0  0
  133.1960  138.1250  145.5930 C   0  0  0  0  0  1  0  0  0  0  0  0
  134.6320  135.0980  146.2530 O   0  0  0  0  0  0  0  0  0  0  0  0
  134.3220  133.7300  146.0020 C   0  0  0  0  0  1  0  0  0  0  0  0
  1  2  2  0  0  0  0
  3 14  1  0  0  0  0
  3  1  1  0  0  0  0
  4  3  1  0  0  0  0
  5  1  1  0  0  0  0
  5  6  1  0  0  0  0
  7  8  1  0  0  0  0
  7  6  1  0  0  0  0
  8  9  1  0  0  0  0
 10 11  1  0  0  0  0
 10  9  1  0  0  0  0
 11 13  1  0  0  0  0
 13 12  1  0  0  0  0
 15 14  1  0  0  0  0
 16 15  1  0  0  0  0
 17 18  1  0  0  0  0
 17 16  1  0  0  0  0
 19 18  2  0  0  0  0
 20 19  1  0  0  0  0
 21 20  2  0  0  0  0
 21 22  1  0  0  0  0
 22 17  2  0  0  0  0
 23 20  1  0  0  0  0
 24 23  1  0  0  0  0
 25 21  1  0  0  0  0
 26 25  1  0  0  0  0
M  END
>  <MODEL>
8

>  <REMARK>
 VINA RESULT:    -4.980      4.411     10.381
 INTER + INTRA:         -11.172
 INTER:                 -10.450
 INTRA:                  -0.722
 UNBOUND:                -2.116
  Name = CHEMBL2268809
  17 active torsions:
  status: ('A' for Active; 'I' for Inactive)
    1  A    between atoms: C_1  and  C_2
    2  A    between atoms: C_2  and  C_3
    3  A    between atoms: C_3  and  C_4
    4  A    between atoms: C_4  and  C_5
    5  A    between atoms: C_5  and  C_6
    6  A    between atoms: C_6  and  C_7
    7  A    between atoms: C_7  and  C_8
    8  A    between atoms: C_8  and  C_9
    9  A    between atoms: C_9  and  C_10
   10  A    between atoms: N_12  and  C_13
   11  A    between atoms: C_13  and  C_14
   12  A    between atoms: C_14  and  C_15
   13  A    between atoms: C_15  and  C_16
   14  A    between atoms: C_19  and  O_20
   15  A    between atoms: O_20  and  C_21
   16  A    between atoms: C_22  and  O_23
   17  A    between atoms: O_23  and  C_24
                            x       y       z     vdW  Elec       q    Type
                         _______ _______ _______ _____ _____    ______ ____

>  <TORSDO>
F 14

>  <SCORE>
-4.980

>  <RMSD_LB>
4.411

>  <RMSD_UB>
10.381

$$$$
CHEMBL2268809
 OpenBabel10172500053D

 26 26  0  0  0  0  0  0  0  0999 V2000
  144.4090  135.6260  148.4640 C   0  0  0  0  0  0  0  0  0  0  0  0
  144.3220  136.3040  147.4490 O   0  0  0  0  0  0  0  0  0  0  0  0
  145.5890  135.0940  148.9290 N   0  0  0  0  0  0  0  0  0  0  0  0
  145.5690  134.5030  149.7160 H   0  0  0  0  0  0  0  0  0  0  0  0
  143.1950  135.3100  149.3180 C   0  0  0  0  0  2  0  0  0  0  0  0
  142.5620  136.5540  149.9380 C   0  0  0  0  0  2  0  0  0  0  0  0
  143.4660  137.1990  150.9910 C   0  0  0  0  0  2  0  0  0  0  0  0
  142.7180  137.3830  152.3080 C   0  0  0  0  0  2  0  0  0  0  0  0
  141.7910  138.5920  152.2450 C   0  0  0  0  0  2  0  0  0  0  0  0
  140.3400  138.1770  152.4680 C   0  0  0  0  0  2  0  0  0  0  0  0
  139.5180  138.3770  151.1970 C   0  0  0  0  0  2  0  0  0  0  0  0
  139.3530  140.7060  150.2770 C   0  0  0  0  0  1  0  0  0  0  0  0
  140.1600  139.4180  150.2860 C   0  0  0  0  0  2  0  0  0  0  0  0
  146.8590  135.3810  148.2970 C   0  0  0  0  0  2  0  0  0  0  0  0
  147.8320  136.1190  149.2240 C   0  0  0  0  0  2  0  0  0  0  0  0
  147.4950  135.9040  150.7040 C   0  0  0  0  0  2  0  0  0  0  0  0
  147.1400  137.1850  151.4190 C   0  0  0  0  0  0  0  0  0  0  0  0
  147.1560  137.2440  152.8140 C   0  0  0  0  0  3  0  0  0  0  0  0
  146.8360  138.4260  153.4880 C   0  0  0  0  0  3  0  0  0  0  0  0
  146.5080  139.5870  152.7790 C   0  0  0  0  0  0  0  0  0  0  0  0
  146.5260  139.5460  151.3740 C   0  0  0  0  0  0  0  0  0  0  0  0
  146.8030  138.3420  150.7070 C   0  0  0  0  0  3  0  0  0  0  0  0
  146.1350  140.7620  153.3750 O   0  0  0  0  0  0  0  0  0  0  0  0
  147.1380  141.5600  153.9870 C   0  0  0  0  0  1  0  0  0  0  0  0
  146.2400  140.5940  150.5330 O   0  0  0  0  0  0  0  0  0  0  0  0
  144.8880  140.6710  150.0900 C   0  0  0  0  0  1  0  0  0  0  0  0
  1  3  1  0  0  0  0
  1  5  1  0  0  0  0
  2  1  2  0  0  0  0
  3  4  1  0  0  0  0
  5  6  1  0  0  0  0
  6  7  1  0  0  0  0
  7  8  1  0  0  0  0
  9  8  1  0  0  0  0
  9 10  1  0  0  0  0
 11 10  1  0  0  0  0
 12 13  1  0  0  0  0
 13 11  1  0  0  0  0
 14  3  1  0  0  0  0
 14 15  1  0  0  0  0
 15 16  1  0  0  0  0
 16 17  1  0  0  0  0
 17 18  1  0  0  0  0
 18 19  2  0  0  0  0
 20 23  1  0  0  0  0
 20 19  1  0  0  0  0
 21 20  2  0  0  0  0
 22 21  1  0  0  0  0
 22 17  2  0  0  0  0
 23 24  1  0  0  0  0
 25 21  1  0  0  0  0
 26 25  1  0  0  0  0
M  END
>  <MODEL>
9

>  <REMARK>
 VINA RESULT:    -4.786      7.759     10.847
 INTER + INTRA:         -10.819
 INTER:                  -8.703
 INTRA:                  -2.116
 UNBOUND:                -2.116
  Name = CHEMBL2268809
  17 active torsions:
  status: ('A' for Active; 'I' for Inactive)
    1  A    between atoms: C_1  and  C_2
    2  A    between atoms: C_2  and  C_3
    3  A    between atoms: C_3  and  C_4
    4  A    between atoms: C_4  and  C_5
    5  A    between atoms: C_5  and  C_6
    6  A    between atoms: C_6  and  C_7
    7  A    between atoms: C_7  and  C_8
    8  A    between atoms: C_8  and  C_9
    9  A    between atoms: C_9  and  C_10
   10  A    between atoms: N_12  and  C_13
   11  A    between atoms: C_13  and  C_14
   12  A    between atoms: C_14  and  C_15
   13  A    between atoms: C_15  and  C_16
   14  A    between atoms: C_19  and  O_20
   15  A    between atoms: O_20  and  C_21
   16  A    between atoms: C_22  and  O_23
   17  A    between atoms: O_23  and  C_24
                            x       y       z     vdW  Elec       q    Type
                         _______ _______ _______ _____ _____    ______ ____

>  <TORSDO>
F 14

>  <SCORE>
-4.786

>  <RMSD_LB>
7.759

>  <RMSD_UB>
10.847

$$$$
