CHEMBL206409
 OpenBabel10172500213D

 26 27  0  0  0  0  0  0  0  0999 V2000
  146.2750  138.9050  149.2590 C   0  0  0  0  0  0  0  0  0  0  0  0
  146.8940  138.8170  148.2010 O   0  0  0  0  0  0  0  0  0  0  0  0
  145.8990  140.1100  149.8080 N   0  0  0  0  0  0  0  0  0  0  0  0
  145.3450  140.1200  150.6220 H   0  0  0  0  0  0  0  0  0  0  0  0
  145.8240  137.6960  150.0460 C   0  0  0  0  0  2  0  0  0  0  0  0
  147.0080  137.1000  150.8040 C   0  0  0  0  0  2  0  0  0  0  0  0
  145.9850  138.5140  154.1970 C   0  0  0  0  0  0  0  0  0  0  0  0
  145.9270  138.0510  152.8790 C   0  0  0  0  0  3  0  0  0  0  0  0
  147.0810  137.5730  152.2340 C   0  0  0  0  0  0  0  0  0  0  0  0
  148.2960  137.5480  152.9260 C   0  0  0  0  0  3  0  0  0  0  0  0
  148.3680  138.0100  154.2390 C   0  0  0  0  0  3  0  0  0  0  0  0
  147.2170  138.4910  154.8650 C   0  0  0  0  0  0  0  0  0  0  0  0
  143.7190  139.2530  154.1880 C   0  0  0  0  0  1  0  0  0  0  0  0
  144.9190  139.0020  154.9050 O   0  0  0  0  0  0  0  0  0  0  0  0
  147.2900  138.9530  156.1530 O   0  0  0  0  0  0  0  0  0  0  0  0
  147.3200  139.8740  156.3190 H   0  0  0  0  0  0  0  0  0  0  0  0
  146.3050  141.3680  149.2040 C   0  0  0  0  0  2  0  0  0  0  0  0
  146.2020  142.5490  150.1760 C   0  0  0  0  0  2  0  0  0  0  0  0
  146.9140  142.2860  151.4780 C   0  0  0  0  0  0  0  0  0  0  0  0
  146.2030  142.2820  152.6880 C   0  0  0  0  0  3  0  0  0  0  0  0
  146.8560  142.0100  153.8920 C   0  0  0  0  0  3  0  0  0  0  0  0
  148.2220  141.7500  153.8850 C   0  0  0  0  0  0  0  0  0  0  0  0
  148.9440  141.7660  152.6990 C   0  0  0  0  0  3  0  0  0  0  0  0
  148.2910  142.0350  151.4950 C   0  0  0  0  0  3  0  0  0  0  0  0
  148.8980  141.4670  155.0360 O   0  0  0  0  0  0  0  0  0  0  0  0
  148.6470  141.8750  155.8400 H   0  0  0  0  0  0  0  0  0  0  0  0
  1  3  1  0  0  0  0
  1  5  1  0  0  0  0
  2  1  2  0  0  0  0
  3  4  1  0  0  0  0
  5  6  1  0  0  0  0
  6  9  1  0  0  0  0
  7 12  1  0  0  0  0
  7 14  1  0  0  0  0
  8  7  2  0  0  0  0
  9  8  1  0  0  0  0
  9 10  2  0  0  0  0
 10 11  1  0  0  0  0
 11 12  2  0  0  0  0
 12 15  1  0  0  0  0
 13 14  1  0  0  0  0
 15 16  1  0  0  0  0
 17  3  1  0  0  0  0
 17 18  1  0  0  0  0
 18 19  1  0  0  0  0
 19 24  2  0  0  0  0
 19 20  1  0  0  0  0
 20 21  2  0  0  0  0
 22 21  1  0  0  0  0
 22 25  1  0  0  0  0
 23 22  2  0  0  0  0
 24 23  1  0  0  0  0
 25 26  1  0  0  0  0
M  END
>  <MODEL>
1

>  <REMARK>
 VINA RESULT:    -8.308      0.000      0.000
 INTER + INTRA:         -12.656
 INTER:                 -10.912
 INTRA:                  -1.744
 UNBOUND:                -0.462
  Name = CHEMBL206409
  10 active torsions:
  status: ('A' for Active; 'I' for Inactive)
    1  A    between atoms: C_1  and  O_2
    2  A    between atoms: O_2  and  C_3
    3  A    between atoms: C_5  and  C_6
    4  A    between atoms: C_6  and  C_7
    5  A    between atoms: C_7  and  C_8
    6  A    between atoms: N_10  and  C_11
    7  A    between atoms: C_11  and  C_12
    8  A    between atoms: C_12  and  C_13
    9  A    between atoms: C_16  and  O_17
   10  A    between atoms: C_22  and  O_23
                            x       y       z     vdW  Elec       q    Type
                         _______ _______ _______ _____ _____    ______ ____

>  <TORSDO>
F 9

>  <SCORE>
-8.308

>  <RMSD_LB>
0.000

>  <RMSD_UB>
0.000

$$$$
CHEMBL206409
 OpenBabel10172500213D

 26 27  0  0  0  0  0  0  0  0999 V2000
  145.3560  138.9370  149.1620 C   0  0  0  0  0  0  0  0  0  0  0  0
  146.3080  138.4200  148.5820 O   0  0  0  0  0  0  0  0  0  0  0  0
  145.2490  140.2950  149.3600 N   0  0  0  0  0  0  0  0  0  0  0  0
  144.4310  140.6620  149.7690 H   0  0  0  0  0  0  0  0  0  0  0  0
  144.1800  138.1390  149.6780 C   0  0  0  0  0  2  0  0  0  0  0  0
  144.6450  137.1810  150.7720 C   0  0  0  0  0  2  0  0  0  0  0  0
  146.0260  138.6060  154.0300 C   0  0  0  0  0  0  0  0  0  0  0  0
  145.9520  138.0220  152.7620 C   0  0  0  0  0  3  0  0  0  0  0  0
  144.7120  137.8350  152.1280 C   0  0  0  0  0  0  0  0  0  0  0  0
  143.5410  138.2530  152.7700 C   0  0  0  0  0  3  0  0  0  0  0  0
  143.6010  138.8350  154.0350 C   0  0  0  0  0  3  0  0  0  0  0  0
  144.8370  139.0050  154.6580 C   0  0  0  0  0  0  0  0  0  0  0  0
  147.8320  137.6900  155.2880 C   0  0  0  0  0  1  0  0  0  0  0  0
  147.1850  138.8230  154.7280 O   0  0  0  0  0  0  0  0  0  0  0  0
  144.8960  139.5690  155.9050 O   0  0  0  0  0  0  0  0  0  0  0  0
  144.8630  140.5000  156.0010 H   0  0  0  0  0  0  0  0  0  0  0  0
  146.3220  141.1960  148.9730 C   0  0  0  0  0  2  0  0  0  0  0  0
  146.3460  142.4780  149.8140 C   0  0  0  0  0  2  0  0  0  0  0  0
  146.9290  142.2550  151.1860 C   0  0  0  0  0  0  0  0  0  0  0  0
  148.3050  142.0290  151.3460 C   0  0  0  0  0  3  0  0  0  0  0  0
  148.8500  141.8510  152.6190 C   0  0  0  0  0  3  0  0  0  0  0  0
  148.0160  141.8920  153.7310 C   0  0  0  0  0  0  0  0  0  0  0  0
  146.6500  142.0990  153.5900 C   0  0  0  0  0  3  0  0  0  0  0  0
  146.1050  142.2790  152.3180 C   0  0  0  0  0  3  0  0  0  0  0  0
  148.5080  141.7370  154.9940 O   0  0  0  0  0  0  0  0  0  0  0  0
  149.0390  140.9950  155.2030 H   0  0  0  0  0  0  0  0  0  0  0  0
  1  3  1  0  0  0  0
  1  5  1  0  0  0  0
  2  1  2  0  0  0  0
  3  4  1  0  0  0  0
  5  6  1  0  0  0  0
  6  9  1  0  0  0  0
  7 12  1  0  0  0  0
  7 14  1  0  0  0  0
  8  7  2  0  0  0  0
  9  8  1  0  0  0  0
  9 10  2  0  0  0  0
 10 11  1  0  0  0  0
 11 12  2  0  0  0  0
 12 15  1  0  0  0  0
 14 13  1  0  0  0  0
 15 16  1  0  0  0  0
 17  3  1  0  0  0  0
 17 18  1  0  0  0  0
 18 19  1  0  0  0  0
 19 20  2  0  0  0  0
 19 24  1  0  0  0  0
 20 21  1  0  0  0  0
 21 22  2  0  0  0  0
 22 25  1  0  0  0  0
 23 22  1  0  0  0  0
 24 23  2  0  0  0  0
 25 26  1  0  0  0  0
M  END
>  <MODEL>
2

>  <REMARK>
 VINA RESULT:    -7.784      1.037      2.334
 INTER + INTRA:         -11.886
 INTER:                 -10.403
 INTRA:                  -1.483
 UNBOUND:                -0.462
  Name = CHEMBL206409
  10 active torsions:
  status: ('A' for Active; 'I' for Inactive)
    1  A    between atoms: C_1  and  O_2
    2  A    between atoms: O_2  and  C_3
    3  A    between atoms: C_5  and  C_6
    4  A    between atoms: C_6  and  C_7
    5  A    between atoms: C_7  and  C_8
    6  A    between atoms: N_10  and  C_11
    7  A    between atoms: C_11  and  C_12
    8  A    between atoms: C_12  and  C_13
    9  A    between atoms: C_16  and  O_17
   10  A    between atoms: C_22  and  O_23
                            x       y       z     vdW  Elec       q    Type
                         _______ _______ _______ _____ _____    ______ ____

>  <TORSDO>
F 9

>  <SCORE>
-7.784

>  <RMSD_LB>
1.037

>  <RMSD_UB>
2.334

$$$$
CHEMBL206409
 OpenBabel10172500213D

 26 27  0  0  0  0  0  0  0  0999 V2000
  147.2270  138.4700  154.6400 C   0  0  0  0  0  0  0  0  0  0  0  0
  147.2150  138.4460  155.8680 O   0  0  0  0  0  0  0  0  0  0  0  0
  147.9350  139.4050  153.9170 N   0  0  0  0  0  0  0  0  0  0  0  0
  147.9660  139.3360  152.9350 H   0  0  0  0  0  0  0  0  0  0  0  0
  146.5030  137.4490  153.7920 C   0  0  0  0  0  2  0  0  0  0  0  0
  146.3540  137.9720  152.3660 C   0  0  0  0  0  2  0  0  0  0  0  0
  142.6760  138.8860  152.8060 C   0  0  0  0  0  0  0  0  0  0  0  0
  143.9670  138.4160  153.0630 C   0  0  0  0  0  3  0  0  0  0  0  0
  144.9720  138.5050  152.0840 C   0  0  0  0  0  0  0  0  0  0  0  0
  144.6770  139.0850  150.8460 C   0  0  0  0  0  3  0  0  0  0  0  0
  143.3920  139.5540  150.5760 C   0  0  0  0  0  3  0  0  0  0  0  0
  142.4010  139.4500  151.5530 C   0  0  0  0  0  0  0  0  0  0  0  0
  141.8660  139.3290  155.0040 C   0  0  0  0  0  1  0  0  0  0  0  0
  141.6320  138.8370  153.6930 O   0  0  0  0  0  0  0  0  0  0  0  0
  141.1370  139.9040  151.2850 O   0  0  0  0  0  0  0  0  0  0  0  0
  140.9770  140.8230  151.1950 H   0  0  0  0  0  0  0  0  0  0  0  0
  148.6390  140.4900  154.5810 C   0  0  0  0  0  2  0  0  0  0  0  0
  147.9420  141.8420  154.3980 C   0  0  0  0  0  2  0  0  0  0  0  0
  147.4500  142.0500  152.9880 C   0  0  0  0  0  0  0  0  0  0  0  0
  148.3470  142.0160  151.9100 C   0  0  0  0  0  3  0  0  0  0  0  0
  147.8890  142.1800  150.6020 C   0  0  0  0  0  3  0  0  0  0  0  0
  146.5330  142.3860  150.3730 C   0  0  0  0  0  0  0  0  0  0  0  0
  145.6330  142.4400  151.4300 C   0  0  0  0  0  3  0  0  0  0  0  0
  146.0900  142.2730  152.7370 C   0  0  0  0  0  3  0  0  0  0  0  0
  146.0400  142.5370  149.1110 O   0  0  0  0  0  0  0  0  0  0  0  0
  145.4580  143.2450  148.9150 H   0  0  0  0  0  0  0  0  0  0  0  0
  1  2  2  0  0  0  0
  3 17  1  0  0  0  0
  3  1  1  0  0  0  0
  4  3  1  0  0  0  0
  5  1  1  0  0  0  0
  6  5  1  0  0  0  0
  7  8  1  0  0  0  0
  7 14  1  0  0  0  0
  9  6  1  0  0  0  0
  9  8  2  0  0  0  0
 10  9  1  0  0  0  0
 11 10  2  0  0  0  0
 11 12  1  0  0  0  0
 12  7  2  0  0  0  0
 14 13  1  0  0  0  0
 15 12  1  0  0  0  0
 16 15  1  0  0  0  0
 18 17  1  0  0  0  0
 19 18  1  0  0  0  0
 20 19  2  0  0  0  0
 21 20  1  0  0  0  0
 22 21  2  0  0  0  0
 22 23  1  0  0  0  0
 23 24  2  0  0  0  0
 24 19  1  0  0  0  0
 25 22  1  0  0  0  0
 26 25  1  0  0  0  0
M  END
>  <MODEL>
3

>  <REMARK>
 VINA RESULT:    -7.769      2.283      4.574
 INTER + INTRA:         -11.864
 INTER:                 -10.317
 INTRA:                  -1.547
 UNBOUND:                -0.462
  Name = CHEMBL206409
  10 active torsions:
  status: ('A' for Active; 'I' for Inactive)
    1  A    between atoms: C_1  and  O_2
    2  A    between atoms: O_2  and  C_3
    3  A    between atoms: C_5  and  C_6
    4  A    between atoms: C_6  and  C_7
    5  A    between atoms: C_7  and  C_8
    6  A    between atoms: N_10  and  C_11
    7  A    between atoms: C_11  and  C_12
    8  A    between atoms: C_12  and  C_13
    9  A    between atoms: C_16  and  O_17
   10  A    between atoms: C_22  and  O_23
                            x       y       z     vdW  Elec       q    Type
                         _______ _______ _______ _____ _____    ______ ____

>  <TORSDO>
F 9

>  <SCORE>
-7.769

>  <RMSD_LB>
2.283

>  <RMSD_UB>
4.574

$$$$
CHEMBL206409
 OpenBabel10172500213D

 26 27  0  0  0  0  0  0  0  0999 V2000
  146.2910  139.6020  148.1390 C   0  0  0  0  0  0  0  0  0  0  0  0
  145.6560  140.1420  147.2370 O   0  0  0  0  0  0  0  0  0  0  0  0
  146.2400  140.0270  149.4490 N   0  0  0  0  0  0  0  0  0  0  0  0
  146.7150  139.5150  150.1430 H   0  0  0  0  0  0  0  0  0  0  0  0
  147.1600  138.3860  147.9150 C   0  0  0  0  0  2  0  0  0  0  0  0
  147.1700  138.0230  146.4320 C   0  0  0  0  0  2  0  0  0  0  0  0
  150.8680  137.4580  145.6810 C   0  0  0  0  0  0  0  0  0  0  0  0
  149.5900  137.3280  146.2330 C   0  0  0  0  0  3  0  0  0  0  0  0
  148.5370  138.1580  145.8100 C   0  0  0  0  0  0  0  0  0  0  0  0
  148.7700  139.1120  144.8150 C   0  0  0  0  0  3  0  0  0  0  0  0
  150.0390  139.2540  144.2590 C   0  0  0  0  0  3  0  0  0  0  0  0
  151.0790  138.4310  144.6940 C   0  0  0  0  0  0  0  0  0  0  0  0
  151.8600  135.2970  145.8470 C   0  0  0  0  0  1  0  0  0  0  0  0
  151.9550  136.7020  146.0310 O   0  0  0  0  0  0  0  0  0  0  0  0
  152.3290  138.5760  144.1530 O   0  0  0  0  0  0  0  0  0  0  0  0
  152.5220  139.3140  143.6090 H   0  0  0  0  0  0  0  0  0  0  0  0
  145.4950  141.2190  149.8220 C   0  0  0  0  0  2  0  0  0  0  0  0
  146.4090  142.3950  150.1830 C   0  0  0  0  0  2  0  0  0  0  0  0
  147.0870  142.2080  151.5160 C   0  0  0  0  0  0  0  0  0  0  0  0
  146.3370  142.2200  152.7030 C   0  0  0  0  0  3  0  0  0  0  0  0
  146.9600  142.0190  153.9360 C   0  0  0  0  0  3  0  0  0  0  0  0
  148.3350  141.8130  153.9820 C   0  0  0  0  0  0  0  0  0  0  0  0
  149.0940  141.8140  152.8190 C   0  0  0  0  0  3  0  0  0  0  0  0
  148.4720  142.0130  151.5870 C   0  0  0  0  0  3  0  0  0  0  0  0
  148.9820  141.5980  155.1630 O   0  0  0  0  0  0  0  0  0  0  0  0
  149.8650  141.8920  155.2750 H   0  0  0  0  0  0  0  0  0  0  0  0
  1  3  1  0  0  0  0
  2  1  2  0  0  0  0
  3 17  1  0  0  0  0
  3  4  1  0  0  0  0
  5  1  1  0  0  0  0
  6  5  1  0  0  0  0
  7 14  1  0  0  0  0
  7  8  1  0  0  0  0
  9  8  2  0  0  0  0
  9  6  1  0  0  0  0
 10  9  1  0  0  0  0
 11 12  1  0  0  0  0
 11 10  2  0  0  0  0
 12  7  2  0  0  0  0
 13 14  1  0  0  0  0
 15 12  1  0  0  0  0
 16 15  1  0  0  0  0
 17 18  1  0  0  0  0
 18 19  1  0  0  0  0
 19 24  2  0  0  0  0
 19 20  1  0  0  0  0
 20 21  2  0  0  0  0
 21 22  1  0  0  0  0
 22 25  1  0  0  0  0
 23 22  2  0  0  0  0
 24 23  1  0  0  0  0
 25 26  1  0  0  0  0
M  END
>  <MODEL>
4

>  <REMARK>
 VINA RESULT:    -7.614      3.832      6.524
 INTER + INTRA:         -11.637
 INTER:                 -11.024
 INTRA:                  -0.613
 UNBOUND:                -0.462
  Name = CHEMBL206409
  10 active torsions:
  status: ('A' for Active; 'I' for Inactive)
    1  A    between atoms: C_1  and  O_2
    2  A    between atoms: O_2  and  C_3
    3  A    between atoms: C_5  and  C_6
    4  A    between atoms: C_6  and  C_7
    5  A    between atoms: C_7  and  C_8
    6  A    between atoms: N_10  and  C_11
    7  A    between atoms: C_11  and  C_12
    8  A    between atoms: C_12  and  C_13
    9  A    between atoms: C_16  and  O_17
   10  A    between atoms: C_22  and  O_23
                            x       y       z     vdW  Elec       q    Type
                         _______ _______ _______ _____ _____    ______ ____

>  <TORSDO>
F 9

>  <SCORE>
-7.614

>  <RMSD_LB>
3.832

>  <RMSD_UB>
6.524

$$$$
CHEMBL206409
 OpenBabel10172500213D

 26 27  0  0  0  0  0  0  0  0999 V2000
  145.1010  138.4610  150.3680 C   0  0  0  0  0  0  0  0  0  0  0  0
  145.8150  138.0520  149.4560 O   0  0  0  0  0  0  0  0  0  0  0  0
  144.8390  139.7980  150.5710 N   0  0  0  0  0  0  0  0  0  0  0  0
  144.2050  140.0650  151.2750 H   0  0  0  0  0  0  0  0  0  0  0  0
  144.4010  137.5370  151.3380 C   0  0  0  0  0  2  0  0  0  0  0  0
  143.1470  136.9580  150.6880 C   0  0  0  0  0  2  0  0  0  0  0  0
  139.4700  137.6700  151.4150 C   0  0  0  0  0  0  0  0  0  0  0  0
  140.6450  137.2960  150.7570 C   0  0  0  0  0  3  0  0  0  0  0  0
  141.8840  137.3410  151.4180 C   0  0  0  0  0  0  0  0  0  0  0  0
  141.9370  137.7490  152.7550 C   0  0  0  0  0  3  0  0  0  0  0  0
  140.7730  138.1270  153.4210 C   0  0  0  0  0  3  0  0  0  0  0  0
  139.5500  138.0890  152.7500 C   0  0  0  0  0  0  0  0  0  0  0  0
  138.0020  138.5180  149.7380 C   0  0  0  0  0  1  0  0  0  0  0  0
  138.2200  137.6660  150.8530 O   0  0  0  0  0  0  0  0  0  0  0  0
  138.4070  138.4690  153.4030 O   0  0  0  0  0  0  0  0  0  0  0  0
  138.0180  139.3010  153.2210 H   0  0  0  0  0  0  0  0  0  0  0  0
  145.4810  140.8190  149.7600 C   0  0  0  0  0  2  0  0  0  0  0  0
  145.6230  142.1540  150.4990 C   0  0  0  0  0  2  0  0  0  0  0  0
  146.5400  142.0570  151.6920 C   0  0  0  0  0  0  0  0  0  0  0  0
  146.0260  142.1630  152.9940 C   0  0  0  0  0  3  0  0  0  0  0  0
  146.8690  142.0450  154.1000 C   0  0  0  0  0  3  0  0  0  0  0  0
  148.2290  141.8290  153.9030 C   0  0  0  0  0  0  0  0  0  0  0  0
  148.7570  141.7380  152.6210 C   0  0  0  0  0  3  0  0  0  0  0  0
  147.9140  141.8530  151.5160 C   0  0  0  0  0  3  0  0  0  0  0  0
  149.0870  141.6940  154.9540 O   0  0  0  0  0  0  0  0  0  0  0  0
  149.5140  142.4460  155.3110 H   0  0  0  0  0  0  0  0  0  0  0  0
  1  3  1  0  0  0  0
  1  5  1  0  0  0  0
  2  1  2  0  0  0  0
  3  4  1  0  0  0  0
  6  5  1  0  0  0  0
  6  9  1  0  0  0  0
  7 12  1  0  0  0  0
  8  7  2  0  0  0  0
  8  9  1  0  0  0  0
  9 10  2  0  0  0  0
 10 11  1  0  0  0  0
 12 15  1  0  0  0  0
 12 11  2  0  0  0  0
 13 14  1  0  0  0  0
 14  7  1  0  0  0  0
 16 15  1  0  0  0  0
 17 18  1  0  0  0  0
 17  3  1  0  0  0  0
 18 19  1  0  0  0  0
 19 20  1  0  0  0  0
 20 21  2  0  0  0  0
 22 21  1  0  0  0  0
 22 25  1  0  0  0  0
 23 22  2  0  0  0  0
 24 19  2  0  0  0  0
 24 23  1  0  0  0  0
 25 26  1  0  0  0  0
M  END
>  <MODEL>
5

>  <REMARK>
 VINA RESULT:    -7.593      3.543      4.690
 INTER + INTRA:         -11.605
 INTER:                 -10.905
 INTRA:                  -0.701
 UNBOUND:                -0.462
  Name = CHEMBL206409
  10 active torsions:
  status: ('A' for Active; 'I' for Inactive)
    1  A    between atoms: C_1  and  O_2
    2  A    between atoms: O_2  and  C_3
    3  A    between atoms: C_5  and  C_6
    4  A    between atoms: C_6  and  C_7
    5  A    between atoms: C_7  and  C_8
    6  A    between atoms: N_10  and  C_11
    7  A    between atoms: C_11  and  C_12
    8  A    between atoms: C_12  and  C_13
    9  A    between atoms: C_16  and  O_17
   10  A    between atoms: C_22  and  O_23
                            x       y       z     vdW  Elec       q    Type
                         _______ _______ _______ _____ _____    ______ ____

>  <TORSDO>
F 9

>  <SCORE>
-7.593

>  <RMSD_LB>
3.543

>  <RMSD_UB>
4.690

$$$$
CHEMBL206409
 OpenBabel10172500213D

 26 27  0  0  0  0  0  0  0  0999 V2000
  138.7010  138.7740  154.4890 C   0  0  0  0  0  0  0  0  0  0  0  0
  139.5390  139.6700  154.5490 O   0  0  0  0  0  0  0  0  0  0  0  0
  138.4400  138.0690  153.3350 N   0  0  0  0  0  0  0  0  0  0  0  0
  137.8080  137.3140  153.3610 H   0  0  0  0  0  0  0  0  0  0  0  0
  137.9000  138.3200  155.6880 C   0  0  0  0  0  2  0  0  0  0  0  0
  138.1680  136.8420  155.9600 C   0  0  0  0  0  2  0  0  0  0  0  0
  134.8450  135.0080  155.5680 C   0  0  0  0  0  0  0  0  0  0  0  0
  136.0240  135.6990  155.2710 C   0  0  0  0  0  3  0  0  0  0  0  0
  136.9130  136.0750  156.2930 C   0  0  0  0  0  0  0  0  0  0  0  0
  136.6200  135.7390  157.6180 C   0  0  0  0  0  3  0  0  0  0  0  0
  135.4470  135.0530  157.9280 C   0  0  0  0  0  3  0  0  0  0  0  0
  134.5670  134.6950  156.9060 C   0  0  0  0  0  0  0  0  0  0  0  0
  134.3650  133.7640  153.5920 C   0  0  0  0  0  1  0  0  0  0  0  0
  133.9160  134.6060  154.6440 O   0  0  0  0  0  0  0  0  0  0  0  0
  133.4100  134.0280  157.2110 O   0  0  0  0  0  0  0  0  0  0  0  0
  133.1020  134.0050  158.0960 H   0  0  0  0  0  0  0  0  0  0  0  0
  139.0850  138.4210  152.0800 C   0  0  0  0  0  2  0  0  0  0  0  0
  140.2900  137.5270  151.7670 C   0  0  0  0  0  2  0  0  0  0  0  0
  141.5940  138.1470  152.2000 C   0  0  0  0  0  0  0  0  0  0  0  0
  142.1980  139.1470  151.4220 C   0  0  0  0  0  3  0  0  0  0  0  0
  143.3920  139.7420  151.8350 C   0  0  0  0  0  3  0  0  0  0  0  0
  143.9840  139.3300  153.0240 C   0  0  0  0  0  0  0  0  0  0  0  0
  143.4090  138.3300  153.7980 C   0  0  0  0  0  3  0  0  0  0  0  0
  142.2150  137.7370  153.3860 C   0  0  0  0  0  3  0  0  0  0  0  0
  145.1420  139.8930  153.4730 O   0  0  0  0  0  0  0  0  0  0  0  0
  145.3110  139.9510  154.3930 H   0  0  0  0  0  0  0  0  0  0  0  0
  1  2  2  0  0  0  0
  1  5  1  0  0  0  0
  3  4  1  0  0  0  0
  3  1  1  0  0  0  0
  5  6  1  0  0  0  0
  6  9  1  0  0  0  0
  7 12  1  0  0  0  0
  8  7  2  0  0  0  0
  8  9  1  0  0  0  0
  9 10  2  0  0  0  0
 10 11  1  0  0  0  0
 12 15  1  0  0  0  0
 12 11  2  0  0  0  0
 13 14  1  0  0  0  0
 14  7  1  0  0  0  0
 15 16  1  0  0  0  0
 17  3  1  0  0  0  0
 18 17  1  0  0  0  0
 18 19  1  0  0  0  0
 19 24  1  0  0  0  0
 20 21  1  0  0  0  0
 20 19  2  0  0  0  0
 21 22  2  0  0  0  0
 22 25  1  0  0  0  0
 22 23  1  0  0  0  0
 24 23  2  0  0  0  0
 25 26  1  0  0  0  0
M  END
>  <MODEL>
6

>  <REMARK>
 VINA RESULT:    -7.420      7.305      9.781
 INTER + INTRA:         -11.353
 INTER:                 -10.542
 INTRA:                  -0.811
 UNBOUND:                -0.462
  Name = CHEMBL206409
  10 active torsions:
  status: ('A' for Active; 'I' for Inactive)
    1  A    between atoms: C_1  and  O_2
    2  A    between atoms: O_2  and  C_3
    3  A    between atoms: C_5  and  C_6
    4  A    between atoms: C_6  and  C_7
    5  A    between atoms: C_7  and  C_8
    6  A    between atoms: N_10  and  C_11
    7  A    between atoms: C_11  and  C_12
    8  A    between atoms: C_12  and  C_13
    9  A    between atoms: C_16  and  O_17
   10  A    between atoms: C_22  and  O_23
                            x       y       z     vdW  Elec       q    Type
                         _______ _______ _______ _____ _____    ______ ____

>  <TORSDO>
F 9

>  <SCORE>
-7.420

>  <RMSD_LB>
7.305

>  <RMSD_UB>
9.781

$$$$
CHEMBL206409
 OpenBabel10172500213D

 26 27  0  0  0  0  0  0  0  0999 V2000
  147.1520  138.3520  153.9520 C   0  0  0  0  0  0  0  0  0  0  0  0
  146.6720  138.1010  155.0540 O   0  0  0  0  0  0  0  0  0  0  0  0
  148.1200  139.3130  153.7580 N   0  0  0  0  0  0  0  0  0  0  0  0
  148.5200  139.4250  152.8650 H   0  0  0  0  0  0  0  0  0  0  0  0
  146.7640  137.6020  152.6990 C   0  0  0  0  0  2  0  0  0  0  0  0
  146.9840  138.4880  151.4750 C   0  0  0  0  0  2  0  0  0  0  0  0
  144.4420  139.3340  148.7590 C   0  0  0  0  0  0  0  0  0  0  0  0
  145.6260  138.9540  149.3970 C   0  0  0  0  0  3  0  0  0  0  0  0
  145.6930  138.8760  150.7990 C   0  0  0  0  0  0  0  0  0  0  0  0
  144.5560  139.1670  151.5600 C   0  0  0  0  0  3  0  0  0  0  0  0
  143.3710  139.5510  150.9350 C   0  0  0  0  0  3  0  0  0  0  0  0
  143.3200  139.6340  149.5430 C   0  0  0  0  0  0  0  0  0  0  0  0
  145.0960  140.3910  146.7240 C   0  0  0  0  0  1  0  0  0  0  0  0
  144.2820  139.4450  147.4020 O   0  0  0  0  0  0  0  0  0  0  0  0
  142.1580  140.0200  148.9300 O   0  0  0  0  0  0  0  0  0  0  0  0
  141.9670  139.7260  148.0610 H   0  0  0  0  0  0  0  0  0  0  0  0
  148.5620  140.1630  154.8520 C   0  0  0  0  0  2  0  0  0  0  0  0
  148.4750  141.6550  154.5110 C   0  0  0  0  0  2  0  0  0  0  0  0
  147.8180  141.9030  153.1770 C   0  0  0  0  0  0  0  0  0  0  0  0
  148.5680  141.8340  151.9920 C   0  0  0  0  0  3  0  0  0  0  0  0
  147.9550  142.0350  150.7540 C   0  0  0  0  0  3  0  0  0  0  0  0
  146.5940  142.3140  150.7020 C   0  0  0  0  0  0  0  0  0  0  0  0
  145.8400  142.4020  151.8660 C   0  0  0  0  0  3  0  0  0  0  0  0
  146.4510  142.1980  153.1030 C   0  0  0  0  0  3  0  0  0  0  0  0
  145.9520  142.5040  149.5140 O   0  0  0  0  0  0  0  0  0  0  0  0
  145.1910  141.9990  149.3060 H   0  0  0  0  0  0  0  0  0  0  0  0
  1  2  2  0  0  0  0
  3  1  1  0  0  0  0
  3 17  1  0  0  0  0
  4  3  1  0  0  0  0
  5  1  1  0  0  0  0
  6  5  1  0  0  0  0
  7  8  2  0  0  0  0
  7 12  1  0  0  0  0
  8  9  1  0  0  0  0
  9  6  1  0  0  0  0
  9 10  2  0  0  0  0
 11 10  1  0  0  0  0
 12 11  2  0  0  0  0
 13 14  1  0  0  0  0
 14  7  1  0  0  0  0
 15 12  1  0  0  0  0
 16 15  1  0  0  0  0
 18 17  1  0  0  0  0
 19 18  1  0  0  0  0
 20 19  2  0  0  0  0
 21 20  1  0  0  0  0
 22 21  2  0  0  0  0
 22 23  1  0  0  0  0
 23 24  2  0  0  0  0
 24 19  1  0  0  0  0
 25 22  1  0  0  0  0
 26 25  1  0  0  0  0
M  END
>  <MODEL>
7

>  <REMARK>
 VINA RESULT:    -7.410      2.294      5.128
 INTER + INTRA:         -11.337
 INTER:                  -9.515
 INTRA:                  -1.821
 UNBOUND:                -0.462
  Name = CHEMBL206409
  10 active torsions:
  status: ('A' for Active; 'I' for Inactive)
    1  A    between atoms: C_1  and  O_2
    2  A    between atoms: O_2  and  C_3
    3  A    between atoms: C_5  and  C_6
    4  A    between atoms: C_6  and  C_7
    5  A    between atoms: C_7  and  C_8
    6  A    between atoms: N_10  and  C_11
    7  A    between atoms: C_11  and  C_12
    8  A    between atoms: C_12  and  C_13
    9  A    between atoms: C_16  and  O_17
   10  A    between atoms: C_22  and  O_23
                            x       y       z     vdW  Elec       q    Type
                         _______ _______ _______ _____ _____    ______ ____

>  <TORSDO>
F 9

>  <SCORE>
-7.410

>  <RMSD_LB>
2.294

>  <RMSD_UB>
5.128

$$$$
CHEMBL206409
 OpenBabel10172500213D

 26 27  0  0  0  0  0  0  0  0999 V2000
  143.9930  139.1320  151.6670 C   0  0  0  0  0  0  0  0  0  0  0  0
  142.9670  139.6460  152.1050 O   0  0  0  0  0  0  0  0  0  0  0  0
  144.8950  139.8140  150.8810 N   0  0  0  0  0  0  0  0  0  0  0  0
  145.7350  139.3740  150.6150 H   0  0  0  0  0  0  0  0  0  0  0  0
  144.3960  137.7090  151.9830 C   0  0  0  0  0  2  0  0  0  0  0  0
  145.5240  137.2720  151.0520 C   0  0  0  0  0  2  0  0  0  0  0  0
  148.2980  138.0070  153.5670 C   0  0  0  0  0  0  0  0  0  0  0  0
  147.0480  137.9700  152.9410 C   0  0  0  0  0  3  0  0  0  0  0  0
  146.8720  137.2830  151.7280 C   0  0  0  0  0  0  0  0  0  0  0  0
  147.9580  136.6160  151.1510 C   0  0  0  0  0  3  0  0  0  0  0  0
  149.2090  136.6470  151.7630 C   0  0  0  0  0  3  0  0  0  0  0  0
  149.3740  137.3420  152.9610 C   0  0  0  0  0  0  0  0  0  0  0  0
  147.8980  138.1960  155.9090 C   0  0  0  0  0  1  0  0  0  0  0  0
  148.5680  138.6540  154.7440 O   0  0  0  0  0  0  0  0  0  0  0  0
  150.6060  137.3800  153.5590 O   0  0  0  0  0  0  0  0  0  0  0  0
  150.7160  137.8180  154.3790 H   0  0  0  0  0  0  0  0  0  0  0  0
  144.6280  141.1730  150.4400 C   0  0  0  0  0  2  0  0  0  0  0  0
  145.8960  142.0310  150.3750 C   0  0  0  0  0  2  0  0  0  0  0  0
  146.7160  141.9430  151.6360 C   0  0  0  0  0  0  0  0  0  0  0  0
  148.0990  141.7130  151.5690 C   0  0  0  0  0  3  0  0  0  0  0  0
  148.8660  141.6580  152.7350 C   0  0  0  0  0  3  0  0  0  0  0  0
  148.2460  141.8270  153.9680 C   0  0  0  0  0  0  0  0  0  0  0  0
  146.8760  142.0400  154.0540 C   0  0  0  0  0  3  0  0  0  0  0  0
  146.1110  142.0960  152.8890 C   0  0  0  0  0  3  0  0  0  0  0  0
  148.9580  141.7960  155.1320 O   0  0  0  0  0  0  0  0  0  0  0  0
  148.8140  142.4490  155.7870 H   0  0  0  0  0  0  0  0  0  0  0  0
  1  5  1  0  0  0  0
  1  2  2  0  0  0  0
  3  1  1  0  0  0  0
  4  3  1  0  0  0  0
  6  9  1  0  0  0  0
  6  5  1  0  0  0  0
  7 14  1  0  0  0  0
  8  7  2  0  0  0  0
  9  8  1  0  0  0  0
 10  9  2  0  0  0  0
 10 11  1  0  0  0  0
 11 12  2  0  0  0  0
 12 15  1  0  0  0  0
 12  7  1  0  0  0  0
 14 13  1  0  0  0  0
 15 16  1  0  0  0  0
 17  3  1  0  0  0  0
 18 17  1  0  0  0  0
 18 19  1  0  0  0  0
 19 24  1  0  0  0  0
 20 19  2  0  0  0  0
 20 21  1  0  0  0  0
 21 22  2  0  0  0  0
 22 23  1  0  0  0  0
 22 25  1  0  0  0  0
 24 23  2  0  0  0  0
 25 26  1  0  0  0  0
M  END
>  <MODEL>
8

>  <REMARK>
 VINA RESULT:    -7.388      1.803      2.692
 INTER + INTRA:         -11.305
 INTER:                 -10.004
 INTRA:                  -1.301
 UNBOUND:                -0.462
  Name = CHEMBL206409
  10 active torsions:
  status: ('A' for Active; 'I' for Inactive)
    1  A    between atoms: C_1  and  O_2
    2  A    between atoms: O_2  and  C_3
    3  A    between atoms: C_5  and  C_6
    4  A    between atoms: C_6  and  C_7
    5  A    between atoms: C_7  and  C_8
    6  A    between atoms: N_10  and  C_11
    7  A    between atoms: C_11  and  C_12
    8  A    between atoms: C_12  and  C_13
    9  A    between atoms: C_16  and  O_17
   10  A    between atoms: C_22  and  O_23
                            x       y       z     vdW  Elec       q    Type
                         _______ _______ _______ _____ _____    ______ ____

>  <TORSDO>
F 9

>  <SCORE>
-7.388

>  <RMSD_LB>
1.803

>  <RMSD_UB>
2.692

$$$$
CHEMBL206409
 OpenBabel10172500213D

 26 27  0  0  0  0  0  0  0  0999 V2000
  143.3080  139.3710  150.3190 C   0  0  0  0  0  0  0  0  0  0  0  0
  142.4710  140.2020  150.6630 O   0  0  0  0  0  0  0  0  0  0  0  0
  144.6520  139.6550  150.2300 N   0  0  0  0  0  0  0  0  0  0  0  0
  145.2870  138.9330  150.0160 H   0  0  0  0  0  0  0  0  0  0  0  0
  142.9540  137.9360  150.0010 C   0  0  0  0  0  2  0  0  0  0  0  0
  142.9010  137.1180  151.2890 C   0  0  0  0  0  2  0  0  0  0  0  0
  141.3540  138.5910  154.4510 C   0  0  0  0  0  0  0  0  0  0  0  0
  142.2910  138.1240  153.5240 C   0  0  0  0  0  3  0  0  0  0  0  0
  141.8820  137.6420  152.2690 C   0  0  0  0  0  0  0  0  0  0  0  0
  140.5220  137.6470  151.9400 C   0  0  0  0  0  3  0  0  0  0  0  0
  139.5780  138.1080  152.8550 C   0  0  0  0  0  3  0  0  0  0  0  0
  139.9960  138.5740  154.1020 C   0  0  0  0  0  0  0  0  0  0  0  0
  142.7860  139.9250  155.8130 C   0  0  0  0  0  1  0  0  0  0  0  0
  141.6560  139.0720  155.6980 O   0  0  0  0  0  0  0  0  0  0  0  0
  139.0680  139.0180  155.0060 O   0  0  0  0  0  0  0  0  0  0  0  0
  139.3340  139.5540  155.7260 H   0  0  0  0  0  0  0  0  0  0  0  0
  145.1490  141.0040  150.4470 C   0  0  0  0  0  2  0  0  0  0  0  0
  145.4130  141.3030  151.9270 C   0  0  0  0  0  2  0  0  0  0  0  0
  146.8520  141.6630  152.1940 C   0  0  0  0  0  0  0  0  0  0  0  0
  147.3450  141.6900  153.5080 C   0  0  0  0  0  3  0  0  0  0  0  0
  148.6850  141.9960  153.7550 C   0  0  0  0  0  3  0  0  0  0  0  0
  149.5290  142.2820  152.6870 C   0  0  0  0  0  0  0  0  0  0  0  0
  149.0540  142.2750  151.3830 C   0  0  0  0  0  3  0  0  0  0  0  0
  147.7160  141.9670  151.1350 C   0  0  0  0  0  3  0  0  0  0  0  0
  150.8480  142.5720  152.8820 O   0  0  0  0  0  0  0  0  0  0  0  0
  151.4100  142.7160  152.1470 H   0  0  0  0  0  0  0  0  0  0  0  0
  1  2  2  0  0  0  0
  3  1  1  0  0  0  0
  3 17  1  0  0  0  0
  4  3  1  0  0  0  0
  5  1  1  0  0  0  0
  5  6  1  0  0  0  0
  6  9  1  0  0  0  0
  7 14  1  0  0  0  0
  8  7  2  0  0  0  0
  9  8  1  0  0  0  0
 10  9  2  0  0  0  0
 10 11  1  0  0  0  0
 11 12  2  0  0  0  0
 12  7  1  0  0  0  0
 12 15  1  0  0  0  0
 14 13  1  0  0  0  0
 15 16  1  0  0  0  0
 17 18  1  0  0  0  0
 18 19  1  0  0  0  0
 19 20  1  0  0  0  0
 20 21  2  0  0  0  0
 22 25  1  0  0  0  0
 22 21  1  0  0  0  0
 23 22  2  0  0  0  0
 24 23  1  0  0  0  0
 24 19  2  0  0  0  0
 26 25  1  0  0  0  0
M  END
>  <MODEL>
9

>  <REMARK>
 VINA RESULT:    -7.280      3.061      4.349
 INTER + INTRA:         -11.146
 INTER:                 -10.684
 INTRA:                  -0.462
 UNBOUND:                -0.462
  Name = CHEMBL206409
  10 active torsions:
  status: ('A' for Active; 'I' for Inactive)
    1  A    between atoms: C_1  and  O_2
    2  A    between atoms: O_2  and  C_3
    3  A    between atoms: C_5  and  C_6
    4  A    between atoms: C_6  and  C_7
    5  A    between atoms: C_7  and  C_8
    6  A    between atoms: N_10  and  C_11
    7  A    between atoms: C_11  and  C_12
    8  A    between atoms: C_12  and  C_13
    9  A    between atoms: C_16  and  O_17
   10  A    between atoms: C_22  and  O_23
                            x       y       z     vdW  Elec       q    Type
                         _______ _______ _______ _____ _____    ______ ____

>  <TORSDO>
F 9

>  <SCORE>
-7.280

>  <RMSD_LB>
3.061

>  <RMSD_UB>
4.349

$$$$
