CHEMBL226588
 OpenBabel10162523583D

 28 29  0  0  0  0  0  0  0  0999 V2000
  134.4050  135.4560  153.9950 C   0  0  0  0  0  0  0  0  0  0  0  0
  133.5510  135.2110  154.8400 O   0  0  0  0  0  0  0  0  0  0  0  0
  135.6940  135.8300  154.3020 N   0  0  0  0  0  0  0  0  0  0  0  0
  136.3370  136.0180  153.5810 H   0  0  0  0  0  0  0  0  0  0  0  0
  134.0350  134.1650  151.9450 C   0  0  0  0  0  3  0  0  0  0  0  0
  134.1340  135.3680  152.5380 C   0  0  0  0  0  3  0  0  0  0  0  0
  132.9840  134.7350  148.3350 C   0  0  0  0  0  0  0  0  0  0  0  0
  133.2170  134.9550  149.6980 C   0  0  0  0  0  3  0  0  0  0  0  0
  133.7660  133.9510  150.5130 C   0  0  0  0  0  0  0  0  0  0  0  0
  134.1210  132.7280  149.9270 C   0  0  0  0  0  3  0  0  0  0  0  0
  133.8960  132.4960  148.5670 C   0  0  0  0  0  3  0  0  0  0  0  0
  133.3240  133.4960  147.7810 C   0  0  0  0  0  0  0  0  0  0  0  0
  133.1800  136.8470  147.2440 C   0  0  0  0  0  1  0  0  0  0  0  0
  132.4410  135.6570  147.4770 O   0  0  0  0  0  0  0  0  0  0  0  0
  133.0940  133.2710  146.4500 O   0  0  0  0  0  0  0  0  0  0  0  0
  132.2370  133.3980  146.0950 H   0  0  0  0  0  0  0  0  0  0  0  0
  136.1050  135.9520  155.6930 C   0  0  0  0  0  2  0  0  0  0  0  0
  136.5750  137.3590  156.0690 C   0  0  0  0  0  2  0  0  0  0  0  0
  138.0560  137.5490  155.8380 C   0  0  0  0  0  0  0  0  0  0  0  0
  138.9790  137.2400  156.8400 C   0  0  0  0  0  3  0  0  0  0  0  0
  140.3490  137.3970  156.6150 C   0  0  0  0  0  3  0  0  0  0  0  0
  140.8160  137.8620  155.3800 C   0  0  0  0  0  0  0  0  0  0  0  0
  139.9130  138.1780  154.3600 C   0  0  0  0  0  0  0  0  0  0  0  0
  138.5380  138.0120  154.6020 C   0  0  0  0  0  3  0  0  0  0  0  0
  142.1660  137.9940  155.2100 O   0  0  0  0  0  0  0  0  0  0  0  0
  142.6400  137.3620  154.7060 H   0  0  0  0  0  0  0  0  0  0  0  0
  140.1820  138.6440  153.1000 O   0  0  0  0  0  0  0  0  0  0  0  0
  140.4650  137.6990  152.0780 C   0  0  0  0  0  1  0  0  0  0  0  0
  1  3  1  0  0  0  0
  1  2  2  0  0  0  0
  3 17  1  0  0  0  0
  4  3  1  0  0  0  0
  5  6  2  0  0  0  0
  6  1  1  0  0  0  0
  7  8  1  0  0  0  0
  8  9  2  0  0  0  0
  9  5  1  0  0  0  0
 10  9  1  0  0  0  0
 11 10  2  0  0  0  0
 12  7  2  0  0  0  0
 12 11  1  0  0  0  0
 13 14  1  0  0  0  0
 14  7  1  0  0  0  0
 15 12  1  0  0  0  0
 16 15  1  0  0  0  0
 17 18  1  0  0  0  0
 19 18  1  0  0  0  0
 19 20  1  0  0  0  0
 21 20  2  0  0  0  0
 22 21  1  0  0  0  0
 23 24  1  0  0  0  0
 23 22  2  0  0  0  0
 24 19  2  0  0  0  0
 25 22  1  0  0  0  0
 26 25  1  0  0  0  0
 27 23  1  0  0  0  0
 28 27  1  0  0  0  0
M  END
>  <MODEL>
1

>  <REMARK>
 VINA RESULT:    -7.648      0.000      0.000
 INTER + INTRA:         -11.706
 INTER:                 -11.147
 INTRA:                  -0.559
 UNBOUND:                -0.482
  Name = CHEMBL226588
  11 active torsions:
  status: ('A' for Active; 'I' for Inactive)
    1  A    between atoms: C_1  and  O_2
    2  A    between atoms: O_2  and  C_3
    3  A    between atoms: C_5  and  C_6
    4  A    between atoms: C_7  and  C_8
    5  A    between atoms: N_10  and  C_11
    6  A    between atoms: C_11  and  C_12
    7  A    between atoms: C_12  and  C_13
    8  A    between atoms: C_16  and  O_17
    9  A    between atoms: C_18  and  O_19
   10  A    between atoms: O_19  and  C_20
   11  A    between atoms: C_24  and  O_25
                            x       y       z     vdW  Elec       q    Type
                         _______ _______ _______ _____ _____    ______ ____

>  <TORSDO>
F 9

>  <SCORE>
-7.648

>  <RMSD_LB>
0.000

>  <RMSD_UB>
0.000

$$$$
CHEMBL226588
 OpenBabel10162523583D

 28 29  0  0  0  0  0  0  0  0999 V2000
  139.8700  138.5480  155.0820 C   0  0  0  0  0  0  0  0  0  0  0  0
  139.6730  139.6330  154.5470 O   0  0  0  0  0  0  0  0  0  0  0  0
  141.1040  137.9370  155.1340 N   0  0  0  0  0  0  0  0  0  0  0  0
  141.2020  137.0630  155.5740 H   0  0  0  0  0  0  0  0  0  0  0  0
  137.8640  137.1430  154.9910 C   0  0  0  0  0  3  0  0  0  0  0  0
  138.7870  137.7740  155.7400 C   0  0  0  0  0  3  0  0  0  0  0  0
  134.7380  134.9900  155.2230 C   0  0  0  0  0  0  0  0  0  0  0  0
  135.7820  135.7590  154.6930 C   0  0  0  0  0  3  0  0  0  0  0  0
  136.7490  136.3440  155.5270 C   0  0  0  0  0  0  0  0  0  0  0  0
  136.6780  136.1090  156.9070 C   0  0  0  0  0  3  0  0  0  0  0  0
  135.6430  135.3420  157.4490 C   0  0  0  0  0  3  0  0  0  0  0  0
  134.6770  134.7930  156.6070 C   0  0  0  0  0  0  0  0  0  0  0  0
  133.5960  134.8300  153.1350 C   0  0  0  0  0  1  0  0  0  0  0  0
  133.7500  134.3980  154.4790 O   0  0  0  0  0  0  0  0  0  0  0  0
  133.6560  134.0470  157.1330 O   0  0  0  0  0  0  0  0  0  0  0  0
  132.9530  133.7620  156.5830 H   0  0  0  0  0  0  0  0  0  0  0  0
  142.2620  138.5840  154.5340 C   0  0  0  0  0  2  0  0  0  0  0  0
  143.1680  137.6200  153.7650 C   0  0  0  0  0  2  0  0  0  0  0  0
  142.6850  137.3860  152.3520 C   0  0  0  0  0  0  0  0  0  0  0  0
  143.5900  137.0960  151.3280 C   0  0  0  0  0  3  0  0  0  0  0  0
  143.1380  136.8600  150.0270 C   0  0  0  0  0  3  0  0  0  0  0  0
  141.7700  136.9070  149.7330 C   0  0  0  0  0  0  0  0  0  0  0  0
  140.8430  137.1950  150.7400 C   0  0  0  0  0  0  0  0  0  0  0  0
  141.3150  137.4280  152.0430 C   0  0  0  0  0  3  0  0  0  0  0  0
  141.3790  136.6650  148.4450 O   0  0  0  0  0  0  0  0  0  0  0  0
  142.0030  136.3630  147.8140 H   0  0  0  0  0  0  0  0  0  0  0  0
  139.4800  137.2850  150.6390 O   0  0  0  0  0  0  0  0  0  0  0  0
  138.8700  138.5460  150.8730 C   0  0  0  0  0  1  0  0  0  0  0  0
  1  3  1  0  0  0  0
  1  6  1  0  0  0  0
  2  1  2  0  0  0  0
  3  4  1  0  0  0  0
  5  9  1  0  0  0  0
  5  6  2  0  0  0  0
  7 12  1  0  0  0  0
  8  7  2  0  0  0  0
  8  9  1  0  0  0  0
  9 10  2  0  0  0  0
 10 11  1  0  0  0  0
 12 15  1  0  0  0  0
 12 11  2  0  0  0  0
 13 14  1  0  0  0  0
 14  7  1  0  0  0  0
 16 15  1  0  0  0  0
 17  3  1  0  0  0  0
 18 17  1  0  0  0  0
 19 18  1  0  0  0  0
 20 19  2  0  0  0  0
 21 20  1  0  0  0  0
 22 21  2  0  0  0  0
 22 23  1  0  0  0  0
 23 24  2  0  0  0  0
 24 19  1  0  0  0  0
 25 22  1  0  0  0  0
 26 25  1  0  0  0  0
 27 23  1  0  0  0  0
 27 28  1  0  0  0  0
M  END
>  <MODEL>
2

>  <REMARK>
 VINA RESULT:    -7.347      3.670      6.711
 INTER + INTRA:         -11.265
 INTER:                 -10.761
 INTRA:                  -0.504
 UNBOUND:                -0.482
  Name = CHEMBL226588
  11 active torsions:
  status: ('A' for Active; 'I' for Inactive)
    1  A    between atoms: C_1  and  O_2
    2  A    between atoms: O_2  and  C_3
    3  A    between atoms: C_5  and  C_6
    4  A    between atoms: C_7  and  C_8
    5  A    between atoms: N_10  and  C_11
    6  A    between atoms: C_11  and  C_12
    7  A    between atoms: C_12  and  C_13
    8  A    between atoms: C_16  and  O_17
    9  A    between atoms: C_18  and  O_19
   10  A    between atoms: O_19  and  C_20
   11  A    between atoms: C_24  and  O_25
                            x       y       z     vdW  Elec       q    Type
                         _______ _______ _______ _____ _____    ______ ____

>  <TORSDO>
F 9

>  <SCORE>
-7.347

>  <RMSD_LB>
3.670

>  <RMSD_UB>
6.711

$$$$
CHEMBL226588
 OpenBabel10162523583D

 28 29  0  0  0  0  0  0  0  0999 V2000
  138.1360  137.6830  153.3550 C   0  0  0  0  0  0  0  0  0  0  0  0
  139.1080  138.3900  153.1120 O   0  0  0  0  0  0  0  0  0  0  0  0
  137.3490  137.1080  152.3810 N   0  0  0  0  0  0  0  0  0  0  0  0
  136.5790  136.5520  152.6360 H   0  0  0  0  0  0  0  0  0  0  0  0
  136.8050  136.3930  154.9580 C   0  0  0  0  0  3  0  0  0  0  0  0
  137.7050  137.3690  154.7410 C   0  0  0  0  0  3  0  0  0  0  0  0
  136.3660  136.0890  158.7230 C   0  0  0  0  0  0  0  0  0  0  0  0
  136.8680  136.4750  157.4740 C   0  0  0  0  0  3  0  0  0  0  0  0
  136.3050  135.9890  156.2830 C   0  0  0  0  0  0  0  0  0  0  0  0
  135.1940  135.1370  156.3630 C   0  0  0  0  0  3  0  0  0  0  0  0
  134.6810  134.7460  157.6030 C   0  0  0  0  0  3  0  0  0  0  0  0
  135.2720  135.2180  158.7740 C   0  0  0  0  0  0  0  0  0  0  0  0
  137.4900  137.7840  159.9700 C   0  0  0  0  0  1  0  0  0  0  0  0
  136.8670  136.5080  159.9290 O   0  0  0  0  0  0  0  0  0  0  0  0
  134.7790  134.8320  159.9920 O   0  0  0  0  0  0  0  0  0  0  0  0
  134.5020  133.9470  160.1250 H   0  0  0  0  0  0  0  0  0  0  0  0
  137.6570  137.3240  150.9750 C   0  0  0  0  0  2  0  0  0  0  0  0
  137.3150  136.1260  150.0860 C   0  0  0  0  0  2  0  0  0  0  0  0
  135.9230  135.6000  150.3460 C   0  0  0  0  0  0  0  0  0  0  0  0
  135.7300  134.4260  151.0800 C   0  0  0  0  0  3  0  0  0  0  0  0
  134.4400  133.9550  151.3360 C   0  0  0  0  0  3  0  0  0  0  0  0
  133.3230  134.6530  150.8640 C   0  0  0  0  0  0  0  0  0  0  0  0
  133.4890  135.8310  150.1270 C   0  0  0  0  0  0  0  0  0  0  0  0
  134.7930  136.2920  149.8810 C   0  0  0  0  0  3  0  0  0  0  0  0
  132.0820  134.1510  151.1450 O   0  0  0  0  0  0  0  0  0  0  0  0
  131.9420  133.6580  151.9300 H   0  0  0  0  0  0  0  0  0  0  0  0
  132.5230  136.6390  149.5880 O   0  0  0  0  0  0  0  0  0  0  0  0
  132.6800  137.0720  148.2440 C   0  0  0  0  0  1  0  0  0  0  0  0
  1  6  1  0  0  0  0
  2  1  2  0  0  0  0
  3  4  1  0  0  0  0
  3  1  1  0  0  0  0
  5  9  1  0  0  0  0
  6  5  2  0  0  0  0
  7 12  1  0  0  0  0
  7 14  1  0  0  0  0
  8  7  2  0  0  0  0
  9 10  2  0  0  0  0
  9  8  1  0  0  0  0
 10 11  1  0  0  0  0
 11 12  2  0  0  0  0
 12 15  1  0  0  0  0
 14 13  1  0  0  0  0
 15 16  1  0  0  0  0
 17  3  1  0  0  0  0
 18 19  1  0  0  0  0
 18 17  1  0  0  0  0
 19 20  1  0  0  0  0
 20 21  2  0  0  0  0
 22 25  1  0  0  0  0
 22 21  1  0  0  0  0
 23 22  2  0  0  0  0
 24 23  1  0  0  0  0
 24 19  2  0  0  0  0
 25 26  1  0  0  0  0
 27 23  1  0  0  0  0
 28 27  1  0  0  0  0
M  END
>  <MODEL>
3

>  <REMARK>
 VINA RESULT:    -7.336      2.759      8.645
 INTER + INTRA:         -11.249
 INTER:                 -10.511
 INTRA:                  -0.738
 UNBOUND:                -0.482
  Name = CHEMBL226588
  11 active torsions:
  status: ('A' for Active; 'I' for Inactive)
    1  A    between atoms: C_1  and  O_2
    2  A    between atoms: O_2  and  C_3
    3  A    between atoms: C_5  and  C_6
    4  A    between atoms: C_7  and  C_8
    5  A    between atoms: N_10  and  C_11
    6  A    between atoms: C_11  and  C_12
    7  A    between atoms: C_12  and  C_13
    8  A    between atoms: C_16  and  O_17
    9  A    between atoms: C_18  and  O_19
   10  A    between atoms: O_19  and  C_20
   11  A    between atoms: C_24  and  O_25
                            x       y       z     vdW  Elec       q    Type
                         _______ _______ _______ _____ _____    ______ ____

>  <TORSDO>
F 9

>  <SCORE>
-7.336

>  <RMSD_LB>
2.759

>  <RMSD_UB>
8.645

$$$$
CHEMBL226588
 OpenBabel10162523583D

 28 29  0  0  0  0  0  0  0  0999 V2000
  134.6800  135.0740  153.4940 C   0  0  0  0  0  0  0  0  0  0  0  0
  133.5490  134.8310  153.0880 O   0  0  0  0  0  0  0  0  0  0  0  0
  135.8210  134.8280  152.7610 N   0  0  0  0  0  0  0  0  0  0  0  0
  136.7040  135.0400  153.1410 H   0  0  0  0  0  0  0  0  0  0  0  0
  136.1960  135.7330  155.3020 C   0  0  0  0  0  3  0  0  0  0  0  0
  134.9390  135.6670  154.8300 C   0  0  0  0  0  3  0  0  0  0  0  0
  136.3070  136.4870  159.0280 C   0  0  0  0  0  0  0  0  0  0  0  0
  135.9180  135.9470  157.7960 C   0  0  0  0  0  3  0  0  0  0  0  0
  136.5770  136.3000  156.6070 C   0  0  0  0  0  0  0  0  0  0  0  0
  137.6680  137.1780  156.6780 C   0  0  0  0  0  3  0  0  0  0  0  0
  138.0690  137.7220  157.9010 C   0  0  0  0  0  3  0  0  0  0  0  0
  137.3840  137.3800  159.0670 C   0  0  0  0  0  0  0  0  0  0  0  0
  134.3690  135.7320  160.1950 C   0  0  0  0  0  1  0  0  0  0  0  0
  135.7080  136.2030  160.2290 O   0  0  0  0  0  0  0  0  0  0  0  0
  137.7660  137.9170  160.2670 O   0  0  0  0  0  0  0  0  0  0  0  0
  137.3350  138.6800  160.5980 H   0  0  0  0  0  0  0  0  0  0  0  0
  135.7200  134.2520  151.4290 C   0  0  0  0  0  2  0  0  0  0  0  0
  136.1600  135.2090  150.3180 C   0  0  0  0  0  2  0  0  0  0  0  0
  135.0380  135.5230  149.3560 C   0  0  0  0  0  0  0  0  0  0  0  0
  133.9200  136.2480  149.7760 C   0  0  0  0  0  3  0  0  0  0  0  0
  132.8950  136.5540  148.8780 C   0  0  0  0  0  3  0  0  0  0  0  0
  132.9750  136.1420  147.5430 C   0  0  0  0  0  0  0  0  0  0  0  0
  134.0840  135.4150  147.0960 C   0  0  0  0  0  0  0  0  0  0  0  0
  135.1070  135.1170  148.0120 C   0  0  0  0  0  3  0  0  0  0  0  0
  131.9470  136.4710  146.7040 O   0  0  0  0  0  0  0  0  0  0  0  0
  131.5970  137.3400  146.7080 H   0  0  0  0  0  0  0  0  0  0  0  0
  134.3310  134.9300  145.8400 O   0  0  0  0  0  0  0  0  0  0  0  0
  134.2580  133.5260  145.6330 C   0  0  0  0  0  1  0  0  0  0  0  0
  1  6  1  0  0  0  0
  2  1  2  0  0  0  0
  3  4  1  0  0  0  0
  3  1  1  0  0  0  0
  5  9  1  0  0  0  0
  6  5  2  0  0  0  0
  7 12  1  0  0  0  0
  7 14  1  0  0  0  0
  8  7  2  0  0  0  0
  9 10  2  0  0  0  0
  9  8  1  0  0  0  0
 10 11  1  0  0  0  0
 11 12  2  0  0  0  0
 12 15  1  0  0  0  0
 13 14  1  0  0  0  0
 15 16  1  0  0  0  0
 17  3  1  0  0  0  0
 18 17  1  0  0  0  0
 19 20  1  0  0  0  0
 19 18  1  0  0  0  0
 21 20  2  0  0  0  0
 22 21  1  0  0  0  0
 23 22  2  0  0  0  0
 23 24  1  0  0  0  0
 24 19  2  0  0  0  0
 25 26  1  0  0  0  0
 25 22  1  0  0  0  0
 27 23  1  0  0  0  0
 28 27  1  0  0  0  0
M  END
>  <MODEL>
4

>  <REMARK>
 VINA RESULT:    -7.114      2.962      9.380
 INTER + INTRA:         -10.923
 INTER:                 -10.246
 INTRA:                  -0.677
 UNBOUND:                -0.482
  Name = CHEMBL226588
  11 active torsions:
  status: ('A' for Active; 'I' for Inactive)
    1  A    between atoms: C_1  and  O_2
    2  A    between atoms: O_2  and  C_3
    3  A    between atoms: C_5  and  C_6
    4  A    between atoms: C_7  and  C_8
    5  A    between atoms: N_10  and  C_11
    6  A    between atoms: C_11  and  C_12
    7  A    between atoms: C_12  and  C_13
    8  A    between atoms: C_16  and  O_17
    9  A    between atoms: C_18  and  O_19
   10  A    between atoms: O_19  and  C_20
   11  A    between atoms: C_24  and  O_25
                            x       y       z     vdW  Elec       q    Type
                         _______ _______ _______ _____ _____    ______ ____

>  <TORSDO>
F 9

>  <SCORE>
-7.114

>  <RMSD_LB>
2.962

>  <RMSD_UB>
9.380

$$$$
CHEMBL226588
 OpenBabel10162523583D

 28 29  0  0  0  0  0  0  0  0999 V2000
  139.0980  138.8650  154.5550 C   0  0  0  0  0  0  0  0  0  0  0  0
  139.0690  140.0100  154.1200 O   0  0  0  0  0  0  0  0  0  0  0  0
  140.2620  138.1580  154.7640 N   0  0  0  0  0  0  0  0  0  0  0  0
  140.2230  137.2380  155.1130 H   0  0  0  0  0  0  0  0  0  0  0  0
  137.9460  137.0300  155.7010 C   0  0  0  0  0  3  0  0  0  0  0  0
  137.8660  138.1140  154.9100 C   0  0  0  0  0  3  0  0  0  0  0  0
  135.3850  135.2250  157.8560 C   0  0  0  0  0  0  0  0  0  0  0  0
  136.4910  135.9970  157.4780 C   0  0  0  0  0  3  0  0  0  0  0  0
  136.7990  136.2090  156.1230 C   0  0  0  0  0  0  0  0  0  0  0  0
  135.9510  135.6670  155.1480 C   0  0  0  0  0  3  0  0  0  0  0  0
  134.8430  134.8970  155.5120 C   0  0  0  0  0  3  0  0  0  0  0  0
  134.5700  134.6740  156.8610 C   0  0  0  0  0  0  0  0  0  0  0  0
  134.3840  136.0010  159.8770 C   0  0  0  0  0  1  0  0  0  0  0  0
  135.0250  134.9610  159.1530 O   0  0  0  0  0  0  0  0  0  0  0  0
  133.4900  133.9140  157.2240 O   0  0  0  0  0  0  0  0  0  0  0  0
  133.5640  132.9810  157.2550 H   0  0  0  0  0  0  0  0  0  0  0  0
  141.5480  138.7700  154.4660 C   0  0  0  0  0  2  0  0  0  0  0  0
  142.6100  137.7650  154.0140 C   0  0  0  0  0  2  0  0  0  0  0  0
  142.5010  137.4400  152.5430 C   0  0  0  0  0  0  0  0  0  0  0  0
  141.2640  137.4760  151.8940 C   0  0  0  0  0  3  0  0  0  0  0  0
  141.1710  137.1960  150.5290 C   0  0  0  0  0  3  0  0  0  0  0  0
  142.3170  136.8790  149.7900 C   0  0  0  0  0  0  0  0  0  0  0  0
  143.5680  136.8370  150.4150 C   0  0  0  0  0  0  0  0  0  0  0  0
  143.6430  137.1230  151.7890 C   0  0  0  0  0  3  0  0  0  0  0  0
  142.1720  136.6160  148.4560 O   0  0  0  0  0  0  0  0  0  0  0  0
  141.5340  137.0840  147.9520 H   0  0  0  0  0  0  0  0  0  0  0  0
  144.7850  136.5460  149.8600 O   0  0  0  0  0  0  0  0  0  0  0  0
  145.8820  136.3020  150.7300 C   0  0  0  0  0  1  0  0  0  0  0  0
  1  3  1  0  0  0  0
  1  6  1  0  0  0  0
  2  1  2  0  0  0  0
  3  4  1  0  0  0  0
  5  9  1  0  0  0  0
  6  5  2  0  0  0  0
  7 14  1  0  0  0  0
  8  7  1  0  0  0  0
  9  8  2  0  0  0  0
 10 11  2  0  0  0  0
 10  9  1  0  0  0  0
 11 12  1  0  0  0  0
 12 15  1  0  0  0  0
 12  7  2  0  0  0  0
 14 13  1  0  0  0  0
 15 16  1  0  0  0  0
 17  3  1  0  0  0  0
 18 17  1  0  0  0  0
 19 18  1  0  0  0  0
 20 19  1  0  0  0  0
 21 20  2  0  0  0  0
 22 23  2  0  0  0  0
 22 21  1  0  0  0  0
 23 24  1  0  0  0  0
 24 19  2  0  0  0  0
 25 22  1  0  0  0  0
 26 25  1  0  0  0  0
 27 23  1  0  0  0  0
 27 28  1  0  0  0  0
M  END
>  <MODEL>
5

>  <REMARK>
 VINA RESULT:    -7.097      5.038      7.457
 INTER + INTRA:         -10.897
 INTER:                 -10.522
 INTRA:                  -0.375
 UNBOUND:                -0.482
  Name = CHEMBL226588
  11 active torsions:
  status: ('A' for Active; 'I' for Inactive)
    1  A    between atoms: C_1  and  O_2
    2  A    between atoms: O_2  and  C_3
    3  A    between atoms: C_5  and  C_6
    4  A    between atoms: C_7  and  C_8
    5  A    between atoms: N_10  and  C_11
    6  A    between atoms: C_11  and  C_12
    7  A    between atoms: C_12  and  C_13
    8  A    between atoms: C_16  and  O_17
    9  A    between atoms: C_18  and  O_19
   10  A    between atoms: O_19  and  C_20
   11  A    between atoms: C_24  and  O_25
                            x       y       z     vdW  Elec       q    Type
                         _______ _______ _______ _____ _____    ______ ____

>  <TORSDO>
F 9

>  <SCORE>
-7.097

>  <RMSD_LB>
5.038

>  <RMSD_UB>
7.457

$$$$
CHEMBL226588
 OpenBabel10162523583D

 28 29  0  0  0  0  0  0  0  0999 V2000
  147.9090  138.4570  153.9840 C   0  0  0  0  0  0  0  0  0  0  0  0
  147.4800  138.2970  155.1220 O   0  0  0  0  0  0  0  0  0  0  0  0
  148.4670  139.6350  153.5390 N   0  0  0  0  0  0  0  0  0  0  0  0
  148.7910  139.7060  152.6130 H   0  0  0  0  0  0  0  0  0  0  0  0
  147.2510  137.5970  151.7860 C   0  0  0  0  0  3  0  0  0  0  0  0
  147.8720  137.3830  152.9600 C   0  0  0  0  0  3  0  0  0  0  0  0
  145.9050  135.5080  148.9070 C   0  0  0  0  0  0  0  0  0  0  0  0
  145.9720  136.4380  149.9520 C   0  0  0  0  0  3  0  0  0  0  0  0
  147.1520  136.6130  150.6940 C   0  0  0  0  0  0  0  0  0  0  0  0
  148.2850  135.8670  150.3420 C   0  0  0  0  0  3  0  0  0  0  0  0
  148.2330  134.9370  149.3000 C   0  0  0  0  0  3  0  0  0  0  0  0
  147.0440  134.7570  148.5940 C   0  0  0  0  0  0  0  0  0  0  0  0
  143.5960  134.9170  148.8290 C   0  0  0  0  0  1  0  0  0  0  0  0
  144.7900  135.2690  148.1450 O   0  0  0  0  0  0  0  0  0  0  0  0
  146.9840  133.8420  147.5770 O   0  0  0  0  0  0  0  0  0  0  0  0
  147.3280  134.0570  146.7330 H   0  0  0  0  0  0  0  0  0  0  0  0
  148.5740  140.7740  154.4380 C   0  0  0  0  0  2  0  0  0  0  0  0
  147.5290  141.8600  154.1720 C   0  0  0  0  0  2  0  0  0  0  0  0
  147.0950  141.8950  152.7250 C   0  0  0  0  0  0  0  0  0  0  0  0
  147.9760  142.3170  151.7260 C   0  0  0  0  0  3  0  0  0  0  0  0
  147.5770  142.3270  150.3870 C   0  0  0  0  0  3  0  0  0  0  0  0
  146.2910  141.9100  150.0280 C   0  0  0  0  0  0  0  0  0  0  0  0
  145.3900  141.4820  151.0080 C   0  0  0  0  0  0  0  0  0  0  0  0
  145.8080  141.4760  152.3500 C   0  0  0  0  0  3  0  0  0  0  0  0
  145.9520  141.9350  148.7030 O   0  0  0  0  0  0  0  0  0  0  0  0
  145.0710  141.7520  148.4400 H   0  0  0  0  0  0  0  0  0  0  0  0
  144.1020  141.0460  150.8460 O   0  0  0  0  0  0  0  0  0  0  0  0
  143.6880  139.8870  151.5550 C   0  0  0  0  0  1  0  0  0  0  0  0
  1  2  2  0  0  0  0
  3  1  1  0  0  0  0
  3 17  1  0  0  0  0
  4  3  1  0  0  0  0
  5  6  2  0  0  0  0
  6  1  1  0  0  0  0
  7  8  1  0  0  0  0
  8  9  2  0  0  0  0
  9  5  1  0  0  0  0
 10  9  1  0  0  0  0
 11 10  2  0  0  0  0
 12  7  2  0  0  0  0
 12 11  1  0  0  0  0
 14 13  1  0  0  0  0
 14  7  1  0  0  0  0
 15 12  1  0  0  0  0
 16 15  1  0  0  0  0
 18 17  1  0  0  0  0
 19 18  1  0  0  0  0
 20 19  2  0  0  0  0
 21 20  1  0  0  0  0
 22 21  2  0  0  0  0
 22 23  1  0  0  0  0
 23 24  2  0  0  0  0
 24 19  1  0  0  0  0
 25 22  1  0  0  0  0
 26 25  1  0  0  0  0
 27 23  1  0  0  0  0
 27 28  1  0  0  0  0
M  END
>  <MODEL>
6

>  <REMARK>
 VINA RESULT:    -7.081      9.334     11.901
 INTER + INTRA:         -10.875
 INTER:                  -9.924
 INTRA:                  -0.951
 UNBOUND:                -0.482
  Name = CHEMBL226588
  11 active torsions:
  status: ('A' for Active; 'I' for Inactive)
    1  A    between atoms: C_1  and  O_2
    2  A    between atoms: O_2  and  C_3
    3  A    between atoms: C_5  and  C_6
    4  A    between atoms: C_7  and  C_8
    5  A    between atoms: N_10  and  C_11
    6  A    between atoms: C_11  and  C_12
    7  A    between atoms: C_12  and  C_13
    8  A    between atoms: C_16  and  O_17
    9  A    between atoms: C_18  and  O_19
   10  A    between atoms: O_19  and  C_20
   11  A    between atoms: C_24  and  O_25
                            x       y       z     vdW  Elec       q    Type
                         _______ _______ _______ _____ _____    ______ ____

>  <TORSDO>
F 9

>  <SCORE>
-7.081

>  <RMSD_LB>
9.334

>  <RMSD_UB>
11.901

$$$$
CHEMBL226588
 OpenBabel10162523583D

 28 29  0  0  0  0  0  0  0  0999 V2000
  136.3520  136.2010  154.5360 C   0  0  0  0  0  0  0  0  0  0  0  0
  136.1950  136.1460  155.7500 O   0  0  0  0  0  0  0  0  0  0  0  0
  137.3280  136.9600  153.9280 N   0  0  0  0  0  0  0  0  0  0  0  0
  137.4050  136.9690  152.9470 H   0  0  0  0  0  0  0  0  0  0  0  0
  135.2750  135.9320  152.3520 C   0  0  0  0  0  3  0  0  0  0  0  0
  135.4980  135.4450  153.5850 C   0  0  0  0  0  3  0  0  0  0  0  0
  133.2740  135.2880  149.1820 C   0  0  0  0  0  0  0  0  0  0  0  0
  134.0430  135.9380  150.1550 C   0  0  0  0  0  3  0  0  0  0  0  0
  134.4520  135.2730  151.3220 C   0  0  0  0  0  0  0  0  0  0  0  0
  134.1110  133.9230  151.4820 C   0  0  0  0  0  3  0  0  0  0  0  0
  133.3450  133.2600  150.5180 C   0  0  0  0  0  3  0  0  0  0  0  0
  132.9260  133.9470  149.3790 C   0  0  0  0  0  0  0  0  0  0  0  0
  133.1920  137.2210  147.7880 C   0  0  0  0  0  1  0  0  0  0  0  0
  132.8260  135.8700  148.0230 O   0  0  0  0  0  0  0  0  0  0  0  0
  132.1690  133.3050  148.4340 O   0  0  0  0  0  0  0  0  0  0  0  0
  131.2900  133.0520  148.6330 H   0  0  0  0  0  0  0  0  0  0  0  0
  138.2440  137.7510  154.7370 C   0  0  0  0  0  2  0  0  0  0  0  0
  138.9820  138.8300  153.9410 C   0  0  0  0  0  2  0  0  0  0  0  0
  140.2100  138.2890  153.2450 C   0  0  0  0  0  0  0  0  0  0  0  0
  140.1270  137.7810  151.9460 C   0  0  0  0  0  3  0  0  0  0  0  0
  141.2690  137.3010  151.2990 C   0  0  0  0  0  3  0  0  0  0  0  0
  142.5120  137.3260  151.9420 C   0  0  0  0  0  0  0  0  0  0  0  0
  142.6210  137.8300  153.2420 C   0  0  0  0  0  0  0  0  0  0  0  0
  141.4640  138.3110  153.8780 C   0  0  0  0  0  3  0  0  0  0  0  0
  143.5980  136.8480  151.2630 O   0  0  0  0  0  0  0  0  0  0  0  0
  143.6820  137.0020  150.3430 H   0  0  0  0  0  0  0  0  0  0  0  0
  143.7420  137.9310  154.0230 O   0  0  0  0  0  0  0  0  0  0  0  0
  144.5000  139.1310  153.9620 C   0  0  0  0  0  1  0  0  0  0  0  0
  1  2  2  0  0  0  0
  3  1  1  0  0  0  0
  3 17  1  0  0  0  0
  4  3  1  0  0  0  0
  5  6  2  0  0  0  0
  6  1  1  0  0  0  0
  7 12  2  0  0  0  0
  7  8  1  0  0  0  0
  8  9  2  0  0  0  0
  9 10  1  0  0  0  0
  9  5  1  0  0  0  0
 11 10  2  0  0  0  0
 12 11  1  0  0  0  0
 13 14  1  0  0  0  0
 14  7  1  0  0  0  0
 15 16  1  0  0  0  0
 15 12  1  0  0  0  0
 18 17  1  0  0  0  0
 19 24  1  0  0  0  0
 19 18  1  0  0  0  0
 20 19  2  0  0  0  0
 21 22  2  0  0  0  0
 21 20  1  0  0  0  0
 22 23  1  0  0  0  0
 23 24  2  0  0  0  0
 23 27  1  0  0  0  0
 25 22  1  0  0  0  0
 26 25  1  0  0  0  0
 28 27  1  0  0  0  0
M  END
>  <MODEL>
7

>  <REMARK>
 VINA RESULT:    -7.008      1.851      2.991
 INTER + INTRA:         -10.766
 INTER:                 -10.183
 INTRA:                  -0.583
 UNBOUND:                -0.482
  Name = CHEMBL226588
  11 active torsions:
  status: ('A' for Active; 'I' for Inactive)
    1  A    between atoms: C_1  and  O_2
    2  A    between atoms: O_2  and  C_3
    3  A    between atoms: C_5  and  C_6
    4  A    between atoms: C_7  and  C_8
    5  A    between atoms: N_10  and  C_11
    6  A    between atoms: C_11  and  C_12
    7  A    between atoms: C_12  and  C_13
    8  A    between atoms: C_16  and  O_17
    9  A    between atoms: C_18  and  O_19
   10  A    between atoms: O_19  and  C_20
   11  A    between atoms: C_24  and  O_25
                            x       y       z     vdW  Elec       q    Type
                         _______ _______ _______ _____ _____    ______ ____

>  <TORSDO>
F 9

>  <SCORE>
-7.008

>  <RMSD_LB>
1.851

>  <RMSD_UB>
2.991

$$$$
CHEMBL226588
 OpenBabel10162523583D

 28 29  0  0  0  0  0  0  0  0999 V2000
  139.1650  138.5170  153.8330 C   0  0  0  0  0  0  0  0  0  0  0  0
  139.2460  139.6610  154.2640 O   0  0  0  0  0  0  0  0  0  0  0  0
  140.1040  137.9480  153.0010 N   0  0  0  0  0  0  0  0  0  0  0  0
  139.9840  137.0240  152.6830 H   0  0  0  0  0  0  0  0  0  0  0  0
  137.8200  137.2570  155.4490 C   0  0  0  0  0  3  0  0  0  0  0  0
  138.0340  137.6150  154.1700 C   0  0  0  0  0  3  0  0  0  0  0  0
  135.5420  135.1700  157.6670 C   0  0  0  0  0  0  0  0  0  0  0  0
  136.5930  135.9980  157.2520 C   0  0  0  0  0  3  0  0  0  0  0  0
  136.7330  136.3740  155.9060 C   0  0  0  0  0  0  0  0  0  0  0  0
  135.7730  135.9390  154.9820 C   0  0  0  0  0  3  0  0  0  0  0  0
  134.7180  135.1140  155.3830 C   0  0  0  0  0  3  0  0  0  0  0  0
  134.6120  134.7290  156.7190 C   0  0  0  0  0  0  0  0  0  0  0  0
  135.9070  135.5360  159.9950 C   0  0  0  0  0  1  0  0  0  0  0  0
  135.3430  134.7490  158.9570 O   0  0  0  0  0  0  0  0  0  0  0  0
  133.5850  133.9150  157.1160 O   0  0  0  0  0  0  0  0  0  0  0  0
  132.7010  134.2190  157.0660 H   0  0  0  0  0  0  0  0  0  0  0  0
  141.2720  138.7130  152.5910 C   0  0  0  0  0  2  0  0  0  0  0  0
  142.5810  138.1920  153.1870 C   0  0  0  0  0  2  0  0  0  0  0  0
  143.6950  139.2100  153.0970 C   0  0  0  0  0  0  0  0  0  0  0  0
  144.5760  139.3990  154.1650 C   0  0  0  0  0  3  0  0  0  0  0  0
  145.6180  140.3250  154.0690 C   0  0  0  0  0  3  0  0  0  0  0  0
  145.7950  141.0740  152.9000 C   0  0  0  0  0  0  0  0  0  0  0  0
  144.9270  140.9030  151.8160 C   0  0  0  0  0  0  0  0  0  0  0  0
  143.8860  139.9660  151.9290 C   0  0  0  0  0  3  0  0  0  0  0  0
  146.8320  141.9650  152.8560 O   0  0  0  0  0  0  0  0  0  0  0  0
  146.8710  142.6060  152.1740 H   0  0  0  0  0  0  0  0  0  0  0  0
  144.9440  141.5430  150.6060 O   0  0  0  0  0  0  0  0  0  0  0  0
  145.8120  141.0510  149.5950 C   0  0  0  0  0  1  0  0  0  0  0  0
  1  6  1  0  0  0  0
  1  2  2  0  0  0  0
  3  1  1  0  0  0  0
  4  3  1  0  0  0  0
  5  9  1  0  0  0  0
  6  5  2  0  0  0  0
  7 14  1  0  0  0  0
  8  7  1  0  0  0  0
  9  8  2  0  0  0  0
 10 11  2  0  0  0  0
 10  9  1  0  0  0  0
 11 12  1  0  0  0  0
 12 15  1  0  0  0  0
 12  7  2  0  0  0  0
 14 13  1  0  0  0  0
 16 15  1  0  0  0  0
 17  3  1  0  0  0  0
 17 18  1  0  0  0  0
 19 18  1  0  0  0  0
 19 20  1  0  0  0  0
 21 20  2  0  0  0  0
 22 21  1  0  0  0  0
 23 24  1  0  0  0  0
 23 22  2  0  0  0  0
 24 19  2  0  0  0  0
 25 22  1  0  0  0  0
 26 25  1  0  0  0  0
 27 23  1  0  0  0  0
 28 27  1  0  0  0  0
M  END
>  <MODEL>
8

>  <REMARK>
 VINA RESULT:    -6.961      5.053      7.596
 INTER + INTRA:         -10.698
 INTER:                 -10.193
 INTRA:                  -0.504
 UNBOUND:                -0.482
  Name = CHEMBL226588
  11 active torsions:
  status: ('A' for Active; 'I' for Inactive)
    1  A    between atoms: C_1  and  O_2
    2  A    between atoms: O_2  and  C_3
    3  A    between atoms: C_5  and  C_6
    4  A    between atoms: C_7  and  C_8
    5  A    between atoms: N_10  and  C_11
    6  A    between atoms: C_11  and  C_12
    7  A    between atoms: C_12  and  C_13
    8  A    between atoms: C_16  and  O_17
    9  A    between atoms: C_18  and  O_19
   10  A    between atoms: O_19  and  C_20
   11  A    between atoms: C_24  and  O_25
                            x       y       z     vdW  Elec       q    Type
                         _______ _______ _______ _____ _____    ______ ____

>  <TORSDO>
F 9

>  <SCORE>
-6.961

>  <RMSD_LB>
5.053

>  <RMSD_UB>
7.596

$$$$
CHEMBL226588
 OpenBabel10162523583D

 28 29  0  0  0  0  0  0  0  0999 V2000
  137.0650  137.0250  152.2820 C   0  0  0  0  0  0  0  0  0  0  0  0
  136.9370  136.7040  153.4580 O   0  0  0  0  0  0  0  0  0  0  0  0
  138.1220  137.7690  151.8060 N   0  0  0  0  0  0  0  0  0  0  0  0
  138.1710  138.0000  150.8510 H   0  0  0  0  0  0  0  0  0  0  0  0
  135.6690  135.3620  151.1470 C   0  0  0  0  0  3  0  0  0  0  0  0
  136.0830  136.6380  151.2380 C   0  0  0  0  0  3  0  0  0  0  0  0
  133.1650  135.2040  148.2890 C   0  0  0  0  0  0  0  0  0  0  0  0
  134.0730  135.7060  149.2300 C   0  0  0  0  0  3  0  0  0  0  0  0
  134.6990  134.8590  150.1590 C   0  0  0  0  0  0  0  0  0  0  0  0
  134.4330  133.4840  150.1020 C   0  0  0  0  0  3  0  0  0  0  0  0
  133.5310  132.9680  149.1660 C   0  0  0  0  0  3  0  0  0  0  0  0
  132.8980  133.8300  148.2710 C   0  0  0  0  0  0  0  0  0  0  0  0
  133.2910  136.7760  146.5000 C   0  0  0  0  0  1  0  0  0  0  0  0
  132.5040  135.9650  147.3590 O   0  0  0  0  0  0  0  0  0  0  0  0
  132.0080  133.3320  147.3570 O   0  0  0  0  0  0  0  0  0  0  0  0
  131.4130  132.6530  147.6060 H   0  0  0  0  0  0  0  0  0  0  0  0
  139.1670  138.2150  152.7170 C   0  0  0  0  0  2  0  0  0  0  0  0
  140.5510  137.6590  152.3750 C   0  0  0  0  0  2  0  0  0  0  0  0
  141.6320  138.2330  153.2610 C   0  0  0  0  0  0  0  0  0  0  0  0
  141.3070  138.8720  154.4600 C   0  0  0  0  0  3  0  0  0  0  0  0
  142.3120  139.3820  155.2860 C   0  0  0  0  0  3  0  0  0  0  0  0
  143.6580  139.2570  154.9250 C   0  0  0  0  0  0  0  0  0  0  0  0
  144.0110  138.6210  153.7300 C   0  0  0  0  0  0  0  0  0  0  0  0
  142.9880  138.1110  152.9120 C   0  0  0  0  0  3  0  0  0  0  0  0
  144.6030  139.7700  155.7710 O   0  0  0  0  0  0  0  0  0  0  0  0
  144.3520  140.0950  156.6130 H   0  0  0  0  0  0  0  0  0  0  0  0
  145.2630  138.4100  153.2180 O   0  0  0  0  0  0  0  0  0  0  0  0
  145.6300  139.0990  152.0310 C   0  0  0  0  0  1  0  0  0  0  0  0
  1  2  2  0  0  0  0
  3  1  1  0  0  0  0
  3 17  1  0  0  0  0
  4  3  1  0  0  0  0
  5  6  2  0  0  0  0
  6  1  1  0  0  0  0
  7  8  1  0  0  0  0
  8  9  2  0  0  0  0
  9  5  1  0  0  0  0
 10  9  1  0  0  0  0
 11 10  2  0  0  0  0
 12  7  2  0  0  0  0
 12 11  1  0  0  0  0
 13 14  1  0  0  0  0
 14  7  1  0  0  0  0
 15 16  1  0  0  0  0
 15 12  1  0  0  0  0
 18 17  1  0  0  0  0
 18 19  1  0  0  0  0
 19 20  1  0  0  0  0
 20 21  2  0  0  0  0
 22 21  1  0  0  0  0
 22 25  1  0  0  0  0
 23 22  2  0  0  0  0
 24 19  2  0  0  0  0
 24 23  1  0  0  0  0
 25 26  1  0  0  0  0
 27 23  1  0  0  0  0
 28 27  1  0  0  0  0
M  END
>  <MODEL>
9

>  <REMARK>
 VINA RESULT:    -6.888      2.477      3.313
 INTER + INTRA:         -10.591
 INTER:                 -10.110
 INTRA:                  -0.482
 UNBOUND:                -0.482
  Name = CHEMBL226588
  11 active torsions:
  status: ('A' for Active; 'I' for Inactive)
    1  A    between atoms: C_1  and  O_2
    2  A    between atoms: O_2  and  C_3
    3  A    between atoms: C_5  and  C_6
    4  A    between atoms: C_7  and  C_8
    5  A    between atoms: N_10  and  C_11
    6  A    between atoms: C_11  and  C_12
    7  A    between atoms: C_12  and  C_13
    8  A    between atoms: C_16  and  O_17
    9  A    between atoms: C_18  and  O_19
   10  A    between atoms: O_19  and  C_20
   11  A    between atoms: C_24  and  O_25
                            x       y       z     vdW  Elec       q    Type
                         _______ _______ _______ _____ _____    ______ ____

>  <TORSDO>
F 9

>  <SCORE>
-6.888

>  <RMSD_LB>
2.477

>  <RMSD_UB>
3.313

$$$$
