CHEMBL2323724
 OpenBabel10172500133D

 29 30  0  0  0  0  0  0  0  0999 V2000
  141.1040  137.8800  155.4830 C   0  0  0  0  0  3  0  0  0  0  0  0
  139.7860  137.8770  155.7420 C   0  0  0  0  0  0  0  0  0  0  0  0
  138.9540  138.9200  155.3710 O   0  0  0  0  0  1  0  0  0  0  0  0
  141.8200  139.0650  154.9230 C   0  0  0  0  0  0  0  0  0  0  0  0
  142.1990  139.9710  155.6600 O   0  0  0  0  0  0  0  0  0  0  0  0
  142.0430  139.0700  153.4200 C   0  0  0  0  0  2  0  0  0  0  0  0
  141.9570  137.6750  152.7940 C   0  0  0  0  0  2  0  0  0  0  0  0
  140.1480  136.9240  149.5350 C   0  0  0  0  0  0  0  0  0  0  0  0
  141.1350  137.0550  150.4960 C   0  0  0  0  0  3  0  0  0  0  0  0
  140.8330  137.5100  151.7970 C   0  0  0  0  0  0  0  0  0  0  0  0
  139.5000  137.7830  152.1260 C   0  0  0  0  0  3  0  0  0  0  0  0
  138.4880  137.6200  151.1770 C   0  0  0  0  0  3  0  0  0  0  0  0
  138.8180  137.2100  149.8840 C   0  0  0  0  0  0  0  0  0  0  0  0
  140.9320  137.6660  147.4330 C   0  0  0  0  0  1  0  0  0  0  0  0
  140.4300  136.5930  148.2400 O   0  0  0  0  0  0  0  0  0  0  0  0
  137.8530  137.1880  148.9090 O   0  0  0  0  0  0  0  0  0  0  0  0
  137.8300  137.8600  148.2560 H   0  0  0  0  0  0  0  0  0  0  0  0
  139.0700  136.8220  156.5820 C   0  0  0  0  0  2  0  0  0  0  0  0
  137.5870  137.0680  156.9720 C   0  0  0  0  0  2  0  0  0  0  0  0
  136.5390  136.3340  156.1500 C   0  0  0  0  0  0  0  0  0  0  0  0
  135.6460  135.4390  156.7380 C   0  0  0  0  0  3  0  0  0  0  0  0
  134.6400  134.8430  155.9960 C   0  0  0  0  0  3  0  0  0  0  0  0
  134.5450  135.0440  154.6240 C   0  0  0  0  0  0  0  0  0  0  0  0
  135.4440  135.8920  153.9790 C   0  0  0  0  0  0  0  0  0  0  0  0
  136.4220  136.5490  154.7590 C   0  0  0  0  0  3  0  0  0  0  0  0
  133.5800  134.3350  153.9680 O   0  0  0  0  0  0  0  0  0  0  0  0
  132.6750  134.5310  154.1120 H   0  0  0  0  0  0  0  0  0  0  0  0
  135.4990  136.1870  152.6420 O   0  0  0  0  0  0  0  0  0  0  0  0
  135.9090  135.1660  151.7340 C   0  0  0  0  0  1  0  0  0  0  0  0
  1  2  2  0  0  0  0
  2 18  1  0  0  0  0
  3  2  1  0  0  0  0
  4  1  1  0  0  0  0
  4  5  2  0  0  0  0
  6  4  1  0  0  0  0
  7  6  1  0  0  0  0
  8 13  2  0  0  0  0
  8  9  1  0  0  0  0
  9 10  2  0  0  0  0
 10 11  1  0  0  0  0
 10  7  1  0  0  0  0
 12 11  2  0  0  0  0
 13 12  1  0  0  0  0
 14 15  1  0  0  0  0
 15  8  1  0  0  0  0
 16 13  1  0  0  0  0
 17 16  1  0  0  0  0
 18 19  1  0  0  0  0
 20 21  1  0  0  0  0
 20 19  1  0  0  0  0
 22 21  2  0  0  0  0
 23 22  1  0  0  0  0
 24 23  2  0  0  0  0
 24 25  1  0  0  0  0
 25 20  2  0  0  0  0
 26 27  1  0  0  0  0
 26 23  1  0  0  0  0
 28 24  1  0  0  0  0
 29 28  1  0  0  0  0
M  END
>  <MODEL>
1

>  <REMARK>
 VINA RESULT:    -7.426      0.000      0.000
 INTER + INTRA:         -12.713
 INTER:                 -11.248
 INTRA:                  -1.465
 UNBOUND:                -0.945
  Name = CHEMBL2323724
  13 active torsions:
  status: ('A' for Active; 'I' for Inactive)
    1  A    between atoms: C_1  and  O_2
    2  A    between atoms: O_2  and  C_3
    3  A    between atoms: C_5  and  C_6
    4  A    between atoms: C_6  and  C_7
    5  A    between atoms: C_7  and  C_8
    6  A    between atoms: C_8  and  C_10
    7  A    between atoms: C_11  and  C_13
    8  A    between atoms: C_13  and  C_14
    9  A    between atoms: C_14  and  C_15
   10  A    between atoms: C_18  and  O_19
   11  A    between atoms: C_20  and  O_21
   12  A    between atoms: O_21  and  C_22
   13  A    between atoms: C_26  and  O_27
                            x       y       z     vdW  Elec       q    Type
                         _______ _______ _______ _____ _____    ______ ____

>  <TORSDO>
F 11

>  <SCORE>
-7.426

>  <RMSD_LB>
0.000

>  <RMSD_UB>
0.000

$$$$
CHEMBL2323724
 OpenBabel10172500133D

 29 30  0  0  0  0  0  0  0  0999 V2000
  141.1370  137.9990  155.2830 C   0  0  0  0  0  3  0  0  0  0  0  0
  139.7970  138.1010  155.3080 C   0  0  0  0  0  0  0  0  0  0  0  0
  139.1300  139.2320  154.8700 O   0  0  0  0  0  1  0  0  0  0  0  0
  142.0330  139.1430  154.9370 C   0  0  0  0  0  0  0  0  0  0  0  0
  142.1660  140.0880  155.7100 O   0  0  0  0  0  0  0  0  0  0  0  0
  142.7490  139.0580  153.5990 C   0  0  0  0  0  2  0  0  0  0  0  0
  142.0150  138.1840  152.5780 C   0  0  0  0  0  2  0  0  0  0  0  0
  145.1760  136.5570  151.2310 C   0  0  0  0  0  0  0  0  0  0  0  0
  144.2930  137.2620  152.0290 C   0  0  0  0  0  3  0  0  0  0  0  0
  142.9260  137.3650  151.6930 C   0  0  0  0  0  0  0  0  0  0  0  0
  142.4560  136.6930  150.5580 C   0  0  0  0  0  3  0  0  0  0  0  0
  143.3300  135.9470  149.7630 C   0  0  0  0  0  3  0  0  0  0  0  0
  144.6850  135.8970  150.0930 C   0  0  0  0  0  0  0  0  0  0  0  0
  146.9930  137.5420  152.3770 C   0  0  0  0  0  1  0  0  0  0  0  0
  146.5200  136.5360  151.4720 O   0  0  0  0  0  0  0  0  0  0  0  0
  145.5720  135.2890  149.2390 O   0  0  0  0  0  0  0  0  0  0  0  0
  146.1350  135.8080  148.7000 H   0  0  0  0  0  0  0  0  0  0  0  0
  138.8630  137.0720  155.9390 C   0  0  0  0  0  2  0  0  0  0  0  0
  137.3440  137.3920  156.0010 C   0  0  0  0  0  2  0  0  0  0  0  0
  136.4040  136.3350  155.4410 C   0  0  0  0  0  0  0  0  0  0  0  0
  136.4590  135.9470  154.1030 C   0  0  0  0  0  3  0  0  0  0  0  0
  135.6600  134.9240  153.6230 C   0  0  0  0  0  3  0  0  0  0  0  0
  134.7110  134.3140  154.4350 C   0  0  0  0  0  0  0  0  0  0  0  0
  134.5810  134.6990  155.7680 C   0  0  0  0  0  0  0  0  0  0  0  0
  135.4520  135.6960  156.2640 C   0  0  0  0  0  3  0  0  0  0  0  0
  133.9060  133.3840  153.8420 O   0  0  0  0  0  0  0  0  0  0  0  0
  132.9850  133.5410  153.7670 H   0  0  0  0  0  0  0  0  0  0  0  0
  133.6950  134.2150  156.6940 O   0  0  0  0  0  0  0  0  0  0  0  0
  133.8980  134.5370  158.0680 C   0  0  0  0  0  1  0  0  0  0  0  0
  1  2  2  0  0  0  0
  2 18  1  0  0  0  0
  3  2  1  0  0  0  0
  4  1  1  0  0  0  0
  4  5  2  0  0  0  0
  6  4  1  0  0  0  0
  7  6  1  0  0  0  0
  8 15  1  0  0  0  0
  8  9  1  0  0  0  0
 10  9  2  0  0  0  0
 10  7  1  0  0  0  0
 11 10  1  0  0  0  0
 12 13  1  0  0  0  0
 12 11  2  0  0  0  0
 13  8  2  0  0  0  0
 15 14  1  0  0  0  0
 16 13  1  0  0  0  0
 17 16  1  0  0  0  0
 18 19  1  0  0  0  0
 20 19  1  0  0  0  0
 20 25  1  0  0  0  0
 21 20  2  0  0  0  0
 22 21  1  0  0  0  0
 22 23  2  0  0  0  0
 23 24  1  0  0  0  0
 24 25  2  0  0  0  0
 24 28  1  0  0  0  0
 26 23  1  0  0  0  0
 27 26  1  0  0  0  0
 28 29  1  0  0  0  0
M  END
>  <MODEL>
2

>  <REMARK>
 VINA RESULT:    -7.338      2.490      3.807
 INTER + INTRA:         -12.573
 INTER:                 -11.771
 INTRA:                  -0.803
 UNBOUND:                -0.945
  Name = CHEMBL2323724
  13 active torsions:
  status: ('A' for Active; 'I' for Inactive)
    1  A    between atoms: C_1  and  O_2
    2  A    between atoms: O_2  and  C_3
    3  A    between atoms: C_5  and  C_6
    4  A    between atoms: C_6  and  C_7
    5  A    between atoms: C_7  and  C_8
    6  A    between atoms: C_8  and  C_10
    7  A    between atoms: C_11  and  C_13
    8  A    between atoms: C_13  and  C_14
    9  A    between atoms: C_14  and  C_15
   10  A    between atoms: C_18  and  O_19
   11  A    between atoms: C_20  and  O_21
   12  A    between atoms: O_21  and  C_22
   13  A    between atoms: C_26  and  O_27
                            x       y       z     vdW  Elec       q    Type
                         _______ _______ _______ _____ _____    ______ ____

>  <TORSDO>
F 11

>  <SCORE>
-7.338

>  <RMSD_LB>
2.490

>  <RMSD_UB>
3.807

$$$$
CHEMBL2323724
 OpenBabel10172500133D

 29 30  0  0  0  0  0  0  0  0999 V2000
  144.6240  139.8550  149.7620 C   0  0  0  0  0  3  0  0  0  0  0  0
  143.5240  139.6490  149.0180 C   0  0  0  0  0  0  0  0  0  0  0  0
  143.5450  139.6950  147.6340 O   0  0  0  0  0  1  0  0  0  0  0  0
  145.9240  140.3080  149.1840 C   0  0  0  0  0  0  0  0  0  0  0  0
  146.6470  139.5200  148.5810 O   0  0  0  0  0  0  0  0  0  0  0  0
  146.2790  141.7720  149.3860 C   0  0  0  0  0  2  0  0  0  0  0  0
  145.8500  142.3120  150.7530 C   0  0  0  0  0  2  0  0  0  0  0  0
  146.8590  140.5300  153.9560 C   0  0  0  0  0  0  0  0  0  0  0  0
  146.1330  140.9660  152.8620 C   0  0  0  0  0  3  0  0  0  0  0  0
  146.7030  141.8320  151.9050 C   0  0  0  0  0  0  0  0  0  0  0  0
  148.0440  142.2110  152.0480 C   0  0  0  0  0  3  0  0  0  0  0  0
  148.7990  141.7480  153.1280 C   0  0  0  0  0  3  0  0  0  0  0  0
  148.1990  140.9260  154.0850 C   0  0  0  0  0  0  0  0  0  0  0  0
  145.6940  138.5540  154.5280 C   0  0  0  0  0  1  0  0  0  0  0  0
  146.2980  139.7830  154.9530 O   0  0  0  0  0  0  0  0  0  0  0  0
  148.8900  140.5880  155.2210 O   0  0  0  0  0  0  0  0  0  0  0  0
  149.7780  140.8670  155.3310 H   0  0  0  0  0  0  0  0  0  0  0  0
  142.1150  139.4850  149.5810 C   0  0  0  0  0  2  0  0  0  0  0  0
  141.7200  138.1150  150.1990 C   0  0  0  0  0  2  0  0  0  0  0  0
  140.6270  138.1380  151.2560 C   0  0  0  0  0  0  0  0  0  0  0  0
  139.3520  137.6360  150.9970 C   0  0  0  0  0  3  0  0  0  0  0  0
  138.3910  137.5820  151.9910 C   0  0  0  0  0  3  0  0  0  0  0  0
  138.6330  138.1110  153.2540 C   0  0  0  0  0  0  0  0  0  0  0  0
  139.8760  138.6690  153.5500 C   0  0  0  0  0  0  0  0  0  0  0  0
  140.8720  138.6540  152.5470 C   0  0  0  0  0  3  0  0  0  0  0  0
  137.5890  138.0970  154.1340 O   0  0  0  0  0  0  0  0  0  0  0  0
  136.8510  138.6560  153.9930 H   0  0  0  0  0  0  0  0  0  0  0  0
  140.2730  139.2430  154.7290 O   0  0  0  0  0  0  0  0  0  0  0  0
  141.5960  138.9940  155.1980 C   0  0  0  0  0  1  0  0  0  0  0  0
  2 18  1  0  0  0  0
  2  1  2  0  0  0  0
  3  2  1  0  0  0  0
  4  6  1  0  0  0  0
  4  1  1  0  0  0  0
  5  4  2  0  0  0  0
  6  7  1  0  0  0  0
  7 10  1  0  0  0  0
  8 13  1  0  0  0  0
  8 15  1  0  0  0  0
  9  8  2  0  0  0  0
 10 11  2  0  0  0  0
 10  9  1  0  0  0  0
 11 12  1  0  0  0  0
 12 13  2  0  0  0  0
 13 16  1  0  0  0  0
 14 15  1  0  0  0  0
 16 17  1  0  0  0  0
 18 19  1  0  0  0  0
 19 20  1  0  0  0  0
 20 25  1  0  0  0  0
 21 20  2  0  0  0  0
 21 22  1  0  0  0  0
 22 23  2  0  0  0  0
 23 24  1  0  0  0  0
 23 26  1  0  0  0  0
 24 28  1  0  0  0  0
 25 24  2  0  0  0  0
 27 26  1  0  0  0  0
 28 29  1  0  0  0  0
M  END
>  <MODEL>
3

>  <REMARK>
 VINA RESULT:    -7.136      4.437      7.986
 INTER + INTRA:         -12.252
 INTER:                 -11.181
 INTRA:                  -1.071
 UNBOUND:                -0.945
  Name = CHEMBL2323724
  13 active torsions:
  status: ('A' for Active; 'I' for Inactive)
    1  A    between atoms: C_1  and  O_2
    2  A    between atoms: O_2  and  C_3
    3  A    between atoms: C_5  and  C_6
    4  A    between atoms: C_6  and  C_7
    5  A    between atoms: C_7  and  C_8
    6  A    between atoms: C_8  and  C_10
    7  A    between atoms: C_11  and  C_13
    8  A    between atoms: C_13  and  C_14
    9  A    between atoms: C_14  and  C_15
   10  A    between atoms: C_18  and  O_19
   11  A    between atoms: C_20  and  O_21
   12  A    between atoms: O_21  and  C_22
   13  A    between atoms: C_26  and  O_27
                            x       y       z     vdW  Elec       q    Type
                         _______ _______ _______ _____ _____    ______ ____

>  <TORSDO>
F 11

>  <SCORE>
-7.136

>  <RMSD_LB>
4.437

>  <RMSD_UB>
7.986

$$$$
CHEMBL2323724
 OpenBabel10172500133D

 29 30  0  0  0  0  0  0  0  0999 V2000
  133.9150  135.9090  152.1640 C   0  0  0  0  0  3  0  0  0  0  0  0
  135.2550  135.8660  152.0820 C   0  0  0  0  0  0  0  0  0  0  0  0
  135.9220  135.8010  150.8710 O   0  0  0  0  0  1  0  0  0  0  0  0
  133.0210  135.7300  150.9810 C   0  0  0  0  0  0  0  0  0  0  0  0
  132.8110  136.6620  150.2100 O   0  0  0  0  0  0  0  0  0  0  0  0
  132.4090  134.3510  150.8010 C   0  0  0  0  0  2  0  0  0  0  0  0
  133.4340  133.2830  150.4090 C   0  0  0  0  0  2  0  0  0  0  0  0
  135.4980  132.8800  147.2420 C   0  0  0  0  0  0  0  0  0  0  0  0
  135.0950  132.8580  148.5650 C   0  0  0  0  0  3  0  0  0  0  0  0
  133.8060  133.2880  148.9440 C   0  0  0  0  0  0  0  0  0  0  0  0
  132.9090  133.6950  147.9490 C   0  0  0  0  0  3  0  0  0  0  0  0
  133.2890  133.6870  146.6050 C   0  0  0  0  0  3  0  0  0  0  0  0
  134.5850  133.2970  146.2600 C   0  0  0  0  0  0  0  0  0  0  0  0
  137.7490  133.5910  147.1290 C   0  0  0  0  0  1  0  0  0  0  0  0
  136.7740  132.5750  146.8620 O   0  0  0  0  0  0  0  0  0  0  0  0
  135.0120  133.4260  144.9620 O   0  0  0  0  0  0  0  0  0  0  0  0
  135.8280  133.0490  144.6970 H   0  0  0  0  0  0  0  0  0  0  0  0
  136.1930  135.7410  153.2800 C   0  0  0  0  0  2  0  0  0  0  0  0
  135.5780  135.4170  154.6700 C   0  0  0  0  0  2  0  0  0  0  0  0
  136.1770  136.1460  155.8630 C   0  0  0  0  0  0  0  0  0  0  0  0
  136.8810  137.3400  155.7090 C   0  0  0  0  0  3  0  0  0  0  0  0
  137.3470  138.0410  156.8080 C   0  0  0  0  0  3  0  0  0  0  0  0
  137.2110  137.5310  158.0940 C   0  0  0  0  0  0  0  0  0  0  0  0
  136.5580  136.3160  158.2980 C   0  0  0  0  0  0  0  0  0  0  0  0
  136.0250  135.6460  157.1740 C   0  0  0  0  0  3  0  0  0  0  0  0
  137.7890  138.2490  159.1010 O   0  0  0  0  0  0  0  0  0  0  0  0
  138.2360  139.0500  158.9090 H   0  0  0  0  0  0  0  0  0  0  0  0
  136.3530  135.6690  159.4890 O   0  0  0  0  0  0  0  0  0  0  0  0
  135.3330  136.1520  160.3610 C   0  0  0  0  0  1  0  0  0  0  0  0
  2  1  2  0  0  0  0
  2 18  1  0  0  0  0
  3  2  1  0  0  0  0
  4  1  1  0  0  0  0
  5  4  2  0  0  0  0
  6  4  1  0  0  0  0
  7  6  1  0  0  0  0
  8  9  1  0  0  0  0
  9 10  2  0  0  0  0
 10  7  1  0  0  0  0
 11 10  1  0  0  0  0
 12 11  2  0  0  0  0
 13 12  1  0  0  0  0
 13  8  2  0  0  0  0
 15 14  1  0  0  0  0
 15  8  1  0  0  0  0
 16 13  1  0  0  0  0
 17 16  1  0  0  0  0
 18 19  1  0  0  0  0
 19 20  1  0  0  0  0
 20 25  1  0  0  0  0
 21 20  2  0  0  0  0
 21 22  1  0  0  0  0
 22 23  2  0  0  0  0
 23 24  1  0  0  0  0
 23 26  1  0  0  0  0
 24 28  1  0  0  0  0
 25 24  2  0  0  0  0
 27 26  1  0  0  0  0
 28 29  1  0  0  0  0
M  END
>  <MODEL>
4

>  <REMARK>
 VINA RESULT:    -7.097      3.836      7.066
 INTER + INTRA:         -12.191
 INTER:                 -11.150
 INTRA:                  -1.042
 UNBOUND:                -0.945
  Name = CHEMBL2323724
  13 active torsions:
  status: ('A' for Active; 'I' for Inactive)
    1  A    between atoms: C_1  and  O_2
    2  A    between atoms: O_2  and  C_3
    3  A    between atoms: C_5  and  C_6
    4  A    between atoms: C_6  and  C_7
    5  A    between atoms: C_7  and  C_8
    6  A    between atoms: C_8  and  C_10
    7  A    between atoms: C_11  and  C_13
    8  A    between atoms: C_13  and  C_14
    9  A    between atoms: C_14  and  C_15
   10  A    between atoms: C_18  and  O_19
   11  A    between atoms: C_20  and  O_21
   12  A    between atoms: O_21  and  C_22
   13  A    between atoms: C_26  and  O_27
                            x       y       z     vdW  Elec       q    Type
                         _______ _______ _______ _____ _____    ______ ____

>  <TORSDO>
F 11

>  <SCORE>
-7.097

>  <RMSD_LB>
3.836

>  <RMSD_UB>
7.066

$$$$
CHEMBL2323724
 OpenBabel10172500133D

 29 30  0  0  0  0  0  0  0  0999 V2000
  141.0540  137.6960  154.8410 C   0  0  0  0  0  3  0  0  0  0  0  0
  139.9030  138.1410  155.3710 C   0  0  0  0  0  0  0  0  0  0  0  0
  139.2300  139.2420  154.8680 O   0  0  0  0  0  1  0  0  0  0  0  0
  141.7950  138.4310  153.7730 C   0  0  0  0  0  0  0  0  0  0  0  0
  142.6300  139.2830  154.0660 O   0  0  0  0  0  0  0  0  0  0  0  0
  141.4560  138.0610  152.3390 C   0  0  0  0  0  2  0  0  0  0  0  0
  141.3590  139.2750  151.4110 C   0  0  0  0  0  2  0  0  0  0  0  0
  138.0560  138.2560  149.8270 C   0  0  0  0  0  0  0  0  0  0  0  0
  139.2390  138.2280  150.5430 C   0  0  0  0  0  3  0  0  0  0  0  0
  140.0550  139.3740  150.6530 C   0  0  0  0  0  0  0  0  0  0  0  0
  139.6240  140.5700  150.0650 C   0  0  0  0  0  3  0  0  0  0  0  0
  138.4130  140.6230  149.3700 C   0  0  0  0  0  3  0  0  0  0  0  0
  137.6450  139.4640  149.2400 C   0  0  0  0  0  0  0  0  0  0  0  0
  136.5740  136.6640  150.7530 C   0  0  0  0  0  1  0  0  0  0  0  0
  137.3060  137.1350  149.6130 O   0  0  0  0  0  0  0  0  0  0  0  0
  136.5310  139.4720  148.4390 O   0  0  0  0  0  0  0  0  0  0  0  0
  135.9730  138.7200  148.4030 H   0  0  0  0  0  0  0  0  0  0  0  0
  139.2730  137.6000  156.6520 C   0  0  0  0  0  2  0  0  0  0  0  0
  137.8070  137.9970  156.9820 C   0  0  0  0  0  2  0  0  0  0  0  0
  136.7670  136.8920  156.8850 C   0  0  0  0  0  0  0  0  0  0  0  0
  136.3030  136.4340  155.6520 C   0  0  0  0  0  3  0  0  0  0  0  0
  135.4220  135.3690  155.5720 C   0  0  0  0  0  3  0  0  0  0  0  0
  134.8990  134.7830  156.7190 C   0  0  0  0  0  0  0  0  0  0  0  0
  135.2920  135.2360  157.9770 C   0  0  0  0  0  0  0  0  0  0  0  0
  136.2460  136.2770  158.0440 C   0  0  0  0  0  3  0  0  0  0  0  0
  133.9630  133.8050  156.5340 O   0  0  0  0  0  0  0  0  0  0  0  0
  133.4830  133.4720  157.2650 H   0  0  0  0  0  0  0  0  0  0  0  0
  134.8660  134.7840  159.1980 O   0  0  0  0  0  0  0  0  0  0  0  0
  134.0410  135.6340  159.9910 C   0  0  0  0  0  1  0  0  0  0  0  0
  1  2  2  0  0  0  0
  2 18  1  0  0  0  0
  3  2  1  0  0  0  0
  4  5  2  0  0  0  0
  4  1  1  0  0  0  0
  6  4  1  0  0  0  0
  7  6  1  0  0  0  0
  8  9  1  0  0  0  0
  9 10  2  0  0  0  0
 10  7  1  0  0  0  0
 11 10  1  0  0  0  0
 12 11  2  0  0  0  0
 13 12  1  0  0  0  0
 13  8  2  0  0  0  0
 15  8  1  0  0  0  0
 15 14  1  0  0  0  0
 16 13  1  0  0  0  0
 17 16  1  0  0  0  0
 18 19  1  0  0  0  0
 20 19  1  0  0  0  0
 20 25  1  0  0  0  0
 21 20  2  0  0  0  0
 22 21  1  0  0  0  0
 22 23  2  0  0  0  0
 23 24  1  0  0  0  0
 24 25  2  0  0  0  0
 24 28  1  0  0  0  0
 26 23  1  0  0  0  0
 26 27  1  0  0  0  0
 28 29  1  0  0  0  0
M  END
>  <MODEL>
5

>  <REMARK>
 VINA RESULT:    -7.028      2.082      3.183
 INTER + INTRA:         -12.082
 INTER:                 -11.094
 INTRA:                  -0.989
 UNBOUND:                -0.945
  Name = CHEMBL2323724
  13 active torsions:
  status: ('A' for Active; 'I' for Inactive)
    1  A    between atoms: C_1  and  O_2
    2  A    between atoms: O_2  and  C_3
    3  A    between atoms: C_5  and  C_6
    4  A    between atoms: C_6  and  C_7
    5  A    between atoms: C_7  and  C_8
    6  A    between atoms: C_8  and  C_10
    7  A    between atoms: C_11  and  C_13
    8  A    between atoms: C_13  and  C_14
    9  A    between atoms: C_14  and  C_15
   10  A    between atoms: C_18  and  O_19
   11  A    between atoms: C_20  and  O_21
   12  A    between atoms: O_21  and  C_22
   13  A    between atoms: C_26  and  O_27
                            x       y       z     vdW  Elec       q    Type
                         _______ _______ _______ _____ _____    ______ ____

>  <TORSDO>
F 11

>  <SCORE>
-7.028

>  <RMSD_LB>
2.082

>  <RMSD_UB>
3.183

$$$$
CHEMBL2323724
 OpenBabel10172500133D

 29 30  0  0  0  0  0  0  0  0999 V2000
  134.3180  135.1090  151.1240 C   0  0  0  0  0  3  0  0  0  0  0  0
  134.5680  135.1830  152.4420 C   0  0  0  0  0  0  0  0  0  0  0  0
  133.5920  134.9550  153.3970 O   0  0  0  0  0  1  0  0  0  0  0  0
  132.9440  134.9350  150.5660 C   0  0  0  0  0  0  0  0  0  0  0  0
  132.0980  135.8150  150.7040 O   0  0  0  0  0  0  0  0  0  0  0  0
  132.6730  133.6310  149.8360 C   0  0  0  0  0  2  0  0  0  0  0  0
  132.5490  133.8050  148.3190 C   0  0  0  0  0  2  0  0  0  0  0  0
  135.3200  136.1410  147.1710 C   0  0  0  0  0  0  0  0  0  0  0  0
  134.6390  135.0260  147.6250 C   0  0  0  0  0  3  0  0  0  0  0  0
  133.2370  135.0370  147.7780 C   0  0  0  0  0  0  0  0  0  0  0  0
  132.5260  136.1870  147.4120 C   0  0  0  0  0  3  0  0  0  0  0  0
  133.1960  137.3080  146.9170 C   0  0  0  0  0  3  0  0  0  0  0  0
  134.5890  137.2860  146.8160 C   0  0  0  0  0  0  0  0  0  0  0  0
  137.3430  136.1800  148.3930 C   0  0  0  0  0  1  0  0  0  0  0  0
  136.6840  136.1930  147.1200 O   0  0  0  0  0  0  0  0  0  0  0  0
  135.2640  138.4300  146.4700 O   0  0  0  0  0  0  0  0  0  0  0  0
  136.1800  138.3930  146.2740 H   0  0  0  0  0  0  0  0  0  0  0  0
  135.8870  135.6570  153.0480 C   0  0  0  0  0  3  0  0  0  0  0  0
  136.8020  136.5820  152.1980 C   0  0  0  0  0  3  0  0  0  0  0  0
  137.8600  137.3700  152.9550 C   0  0  0  0  0  0  0  0  0  0  0  0
  138.9940  137.8680  152.3150 C   0  0  0  0  0  3  0  0  0  0  0  0
  139.9070  138.6580  152.9920 C   0  0  0  0  0  3  0  0  0  0  0  0
  139.7720  138.9030  154.3540 C   0  0  0  0  0  0  0  0  0  0  0  0
  138.6820  138.3860  155.0520 C   0  0  0  0  0  0  0  0  0  0  0  0
  137.7200  137.6400  154.3330 C   0  0  0  0  0  3  0  0  0  0  0  0
  140.7760  139.6110  154.9500 O   0  0  0  0  0  0  0  0  0  0  0  0
  140.8260  140.5400  154.8360 H   0  0  0  0  0  0  0  0  0  0  0  0
  138.4080  138.5180  156.3880 O   0  0  0  0  0  0  0  0  0  0  0  0
  137.3180  137.7810  156.9380 C   0  0  0  0  0  1  0  0  0  0  0  0
  1  2  2  0  0  0  0
  2 18  1  0  0  0  0
  2  3  1  0  0  0  0
  4  5  2  0  0  0  0
  4  1  1  0  0  0  0
  6  4  1  0  0  0  0
  7  6  1  0  0  0  0
  8  9  1  0  0  0  0
  9 10  2  0  0  0  0
 10  7  1  0  0  0  0
 11 10  1  0  0  0  0
 12 11  2  0  0  0  0
 13 12  1  0  0  0  0
 13  8  2  0  0  0  0
 15  8  1  0  0  0  0
 15 14  1  0  0  0  0
 16 13  1  0  0  0  0
 17 16  1  0  0  0  0
 19 20  1  0  0  0  0
 19 18  2  0  0  0  0
 20 25  1  0  0  0  0
 21 20  2  0  0  0  0
 21 22  1  0  0  0  0
 22 23  2  0  0  0  0
 23 26  1  0  0  0  0
 23 24  1  0  0  0  0
 24 28  1  0  0  0  0
 25 24  2  0  0  0  0
 27 26  1  0  0  0  0
 28 29  1  0  0  0  0
M  END
>  <MODEL>
6

>  <REMARK>
 VINA RESULT:    -6.953      3.195      7.180
 INTER + INTRA:         -11.962
 INTER:                 -11.399
 INTRA:                  -0.563
 UNBOUND:                -0.945
  Name = CHEMBL2323724
  13 active torsions:
  status: ('A' for Active; 'I' for Inactive)
    1  A    between atoms: C_1  and  O_2
    2  A    between atoms: O_2  and  C_3
    3  A    between atoms: C_5  and  C_6
    4  A    between atoms: C_6  and  C_7
    5  A    between atoms: C_7  and  C_8
    6  A    between atoms: C_8  and  C_10
    7  A    between atoms: C_11  and  C_13
    8  A    between atoms: C_13  and  C_14
    9  A    between atoms: C_14  and  C_15
   10  A    between atoms: C_18  and  O_19
   11  A    between atoms: C_20  and  O_21
   12  A    between atoms: O_21  and  C_22
   13  A    between atoms: C_26  and  O_27
                            x       y       z     vdW  Elec       q    Type
                         _______ _______ _______ _____ _____    ______ ____

>  <TORSDO>
F 11

>  <SCORE>
-6.953

>  <RMSD_LB>
3.195

>  <RMSD_UB>
7.180

$$$$
CHEMBL2323724
 OpenBabel10172500133D

 29 30  0  0  0  0  0  0  0  0999 V2000
  134.8320  135.6940  150.5180 C   0  0  0  0  0  3  0  0  0  0  0  0
  134.9840  135.9940  151.8190 C   0  0  0  0  0  0  0  0  0  0  0  0
  133.9100  136.2730  152.6470 O   0  0  0  0  0  1  0  0  0  0  0  0
  133.5200  135.7890  149.8100 C   0  0  0  0  0  0  0  0  0  0  0  0
  133.1420  136.8570  149.3360 O   0  0  0  0  0  0  0  0  0  0  0  0
  132.7090  134.5080  149.7180 C   0  0  0  0  0  2  0  0  0  0  0  0
  132.5370  134.0060  148.2810 C   0  0  0  0  0  2  0  0  0  0  0  0
  135.3770  133.0710  145.9330 C   0  0  0  0  0  0  0  0  0  0  0  0
  134.2970  133.7200  146.5030 C   0  0  0  0  0  3  0  0  0  0  0  0
  133.7450  133.2860  147.7270 C   0  0  0  0  0  0  0  0  0  0  0  0
  134.3420  132.2090  148.3940 C   0  0  0  0  0  3  0  0  0  0  0  0
  135.4560  131.5670  147.8490 C   0  0  0  0  0  3  0  0  0  0  0  0
  135.9570  131.9890  146.6150 C   0  0  0  0  0  0  0  0  0  0  0  0
  136.8480  134.4390  144.6870 C   0  0  0  0  0  1  0  0  0  0  0  0
  135.8590  133.4010  144.6980 O   0  0  0  0  0  0  0  0  0  0  0  0
  136.9570  131.2730  146.0050 O   0  0  0  0  0  0  0  0  0  0  0  0
  137.7930  131.6690  145.8560 H   0  0  0  0  0  0  0  0  0  0  0  0
  136.3300  136.2050  152.5060 C   0  0  0  0  0  2  0  0  0  0  0  0
  137.4290  137.0060  151.7530 C   0  0  0  0  0  2  0  0  0  0  0  0
  138.4630  137.7140  152.6150 C   0  0  0  0  0  0  0  0  0  0  0  0
  138.1730  138.1170  153.9180 C   0  0  0  0  0  3  0  0  0  0  0  0
  139.1460  138.6820  154.7240 C   0  0  0  0  0  3  0  0  0  0  0  0
  140.4170  138.9520  154.2310 C   0  0  0  0  0  0  0  0  0  0  0  0
  140.7440  138.6140  152.9180 C   0  0  0  0  0  0  0  0  0  0  0  0
  139.7620  137.9730  152.1290 C   0  0  0  0  0  3  0  0  0  0  0  0
  141.2750  139.6000  155.0730 O   0  0  0  0  0  0  0  0  0  0  0  0
  141.4500  139.2500  155.9240 H   0  0  0  0  0  0  0  0  0  0  0  0
  141.9360  138.8230  152.2750 O   0  0  0  0  0  0  0  0  0  0  0  0
  142.9620  137.8420  152.4050 C   0  0  0  0  0  1  0  0  0  0  0  0
  1  2  2  0  0  0  0
  2 18  1  0  0  0  0
  2  3  1  0  0  0  0
  4  1  1  0  0  0  0
  5  4  2  0  0  0  0
  6  4  1  0  0  0  0
  7  6  1  0  0  0  0
  8  9  2  0  0  0  0
  8 13  1  0  0  0  0
  9 10  1  0  0  0  0
 10  7  1  0  0  0  0
 10 11  2  0  0  0  0
 12 11  1  0  0  0  0
 13 12  2  0  0  0  0
 14 15  1  0  0  0  0
 15  8  1  0  0  0  0
 16 13  1  0  0  0  0
 17 16  1  0  0  0  0
 19 18  1  0  0  0  0
 19 20  1  0  0  0  0
 20 21  1  0  0  0  0
 21 22  2  0  0  0  0
 23 22  1  0  0  0  0
 23 26  1  0  0  0  0
 24 23  2  0  0  0  0
 25 20  2  0  0  0  0
 25 24  1  0  0  0  0
 26 27  1  0  0  0  0
 28 29  1  0  0  0  0
 28 24  1  0  0  0  0
M  END
>  <MODEL>
7

>  <REMARK>
 VINA RESULT:    -6.859      3.858      7.619
 INTER + INTRA:         -11.814
 INTER:                 -10.868
 INTRA:                  -0.945
 UNBOUND:                -0.945
  Name = CHEMBL2323724
  13 active torsions:
  status: ('A' for Active; 'I' for Inactive)
    1  A    between atoms: C_1  and  O_2
    2  A    between atoms: O_2  and  C_3
    3  A    between atoms: C_5  and  C_6
    4  A    between atoms: C_6  and  C_7
    5  A    between atoms: C_7  and  C_8
    6  A    between atoms: C_8  and  C_10
    7  A    between atoms: C_11  and  C_13
    8  A    between atoms: C_13  and  C_14
    9  A    between atoms: C_14  and  C_15
   10  A    between atoms: C_18  and  O_19
   11  A    between atoms: C_20  and  O_21
   12  A    between atoms: O_21  and  C_22
   13  A    between atoms: C_26  and  O_27
                            x       y       z     vdW  Elec       q    Type
                         _______ _______ _______ _____ _____    ______ ____

>  <TORSDO>
F 11

>  <SCORE>
-6.859

>  <RMSD_LB>
3.858

>  <RMSD_UB>
7.619

$$$$
CHEMBL2323724
 OpenBabel10172500133D

 29 30  0  0  0  0  0  0  0  0999 V2000
  144.8330  139.5980  149.5980 C   0  0  0  0  0  3  0  0  0  0  0  0
  143.6590  139.4590  148.9620 C   0  0  0  0  0  0  0  0  0  0  0  0
  143.5290  139.6350  147.5950 O   0  0  0  0  0  1  0  0  0  0  0  0
  146.0660  140.1090  148.9270 C   0  0  0  0  0  0  0  0  0  0  0  0
  146.8000  139.3450  148.3050 O   0  0  0  0  0  0  0  0  0  0  0  0
  146.3410  141.5970  149.0620 C   0  0  0  0  0  2  0  0  0  0  0  0
  145.8700  142.1770  150.3990 C   0  0  0  0  0  2  0  0  0  0  0  0
  146.9460  140.6700  153.7190 C   0  0  0  0  0  0  0  0  0  0  0  0
  146.2030  141.0020  152.6010 C   0  0  0  0  0  3  0  0  0  0  0  0
  146.7420  141.8090  151.5770 C   0  0  0  0  0  0  0  0  0  0  0  0
  148.0730  142.2320  151.6800 C   0  0  0  0  0  3  0  0  0  0  0  0
  148.8480  141.8730  152.7850 C   0  0  0  0  0  3  0  0  0  0  0  0
  148.2770  141.1100  153.8060 C   0  0  0  0  0  0  0  0  0  0  0  0
  145.0050  139.7270  154.6840 C   0  0  0  0  0  1  0  0  0  0  0  0
  146.4130  139.9850  154.7740 O   0  0  0  0  0  0  0  0  0  0  0  0
  148.9840  140.8760  154.9590 O   0  0  0  0  0  0  0  0  0  0  0  0
  149.5110  140.1060  155.0380 H   0  0  0  0  0  0  0  0  0  0  0  0
  142.3180  139.2360  149.6580 C   0  0  0  0  0  3  0  0  0  0  0  0
  142.1520  137.9830  150.5600 C   0  0  0  0  0  3  0  0  0  0  0  0
  140.8870  137.9160  151.4020 C   0  0  0  0  0  0  0  0  0  0  0  0
  140.9100  138.1700  152.7730 C   0  0  0  0  0  3  0  0  0  0  0  0
  139.7410  138.1930  153.5140 C   0  0  0  0  0  3  0  0  0  0  0  0
  138.5180  137.8720  152.9360 C   0  0  0  0  0  0  0  0  0  0  0  0
  138.4470  137.5620  151.5780 C   0  0  0  0  0  0  0  0  0  0  0  0
  139.6380  137.6120  150.8180 C   0  0  0  0  0  3  0  0  0  0  0  0
  137.4390  137.8270  153.7710 O   0  0  0  0  0  0  0  0  0  0  0  0
  137.3670  137.1440  154.4080 H   0  0  0  0  0  0  0  0  0  0  0  0
  137.3350  137.2120  150.8590 O   0  0  0  0  0  0  0  0  0  0  0  0
  137.1440  137.7910  149.5710 C   0  0  0  0  0  1  0  0  0  0  0  0
  2  1  2  0  0  0  0
  2 18  1  0  0  0  0
  3  2  1  0  0  0  0
  4  6  1  0  0  0  0
  4  1  1  0  0  0  0
  5  4  2  0  0  0  0
  6  7  1  0  0  0  0
  7 10  1  0  0  0  0
  8 13  1  0  0  0  0
  8 15  1  0  0  0  0
  9  8  2  0  0  0  0
 10 11  2  0  0  0  0
 10  9  1  0  0  0  0
 11 12  1  0  0  0  0
 12 13  2  0  0  0  0
 13 16  1  0  0  0  0
 14 15  1  0  0  0  0
 16 17  1  0  0  0  0
 18 19  2  0  0  0  0
 19 20  1  0  0  0  0
 20 21  1  0  0  0  0
 21 22  2  0  0  0  0
 23 22  1  0  0  0  0
 23 26  1  0  0  0  0
 24 23  2  0  0  0  0
 25 20  2  0  0  0  0
 25 24  1  0  0  0  0
 26 27  1  0  0  0  0
 28 24  1  0  0  0  0
 29 28  1  0  0  0  0
M  END
>  <MODEL>
8

>  <REMARK>
 VINA RESULT:    -6.854      4.503      7.825
 INTER + INTRA:         -11.806
 INTER:                 -10.845
 INTRA:                  -0.961
 UNBOUND:                -0.945
  Name = CHEMBL2323724
  13 active torsions:
  status: ('A' for Active; 'I' for Inactive)
    1  A    between atoms: C_1  and  O_2
    2  A    between atoms: O_2  and  C_3
    3  A    between atoms: C_5  and  C_6
    4  A    between atoms: C_6  and  C_7
    5  A    between atoms: C_7  and  C_8
    6  A    between atoms: C_8  and  C_10
    7  A    between atoms: C_11  and  C_13
    8  A    between atoms: C_13  and  C_14
    9  A    between atoms: C_14  and  C_15
   10  A    between atoms: C_18  and  O_19
   11  A    between atoms: C_20  and  O_21
   12  A    between atoms: O_21  and  C_22
   13  A    between atoms: C_26  and  O_27
                            x       y       z     vdW  Elec       q    Type
                         _______ _______ _______ _____ _____    ______ ____

>  <TORSDO>
F 11

>  <SCORE>
-6.854

>  <RMSD_LB>
4.503

>  <RMSD_UB>
7.825

$$$$
CHEMBL2323724
 OpenBabel10172500133D

 29 30  0  0  0  0  0  0  0  0999 V2000
  138.8970  135.6250  148.5290 C   0  0  0  0  0  3  0  0  0  0  0  0
  138.4390  136.7790  149.0420 C   0  0  0  0  0  0  0  0  0  0  0  0
  137.2020  137.3020  148.7060 O   0  0  0  0  0  1  0  0  0  0  0  0
  138.1960  134.8850  147.4370 C   0  0  0  0  0  0  0  0  0  0  0  0
  138.4600  135.1140  146.2600 O   0  0  0  0  0  0  0  0  0  0  0  0
  137.1650  133.8580  147.8720 C   0  0  0  0  0  2  0  0  0  0  0  0
  135.8270  134.0020  147.1420 C   0  0  0  0  0  2  0  0  0  0  0  0
  133.7440  135.6960  149.8340 C   0  0  0  0  0  0  0  0  0  0  0  0
  134.6460  134.8680  149.1910 C   0  0  0  0  0  3  0  0  0  0  0  0
  134.8610  134.9610  147.7990 C   0  0  0  0  0  0  0  0  0  0  0  0
  134.1810  135.9470  147.0740 C   0  0  0  0  0  3  0  0  0  0  0  0
  133.2940  136.8150  147.7160 C   0  0  0  0  0  3  0  0  0  0  0  0
  133.0670  136.6740  149.0870 C   0  0  0  0  0  0  0  0  0  0  0  0
  133.8750  134.3270  151.7550 C   0  0  0  0  0  1  0  0  0  0  0  0
  133.4360  135.5530  151.1570 O   0  0  0  0  0  0  0  0  0  0  0  0
  132.0920  137.4240  149.6960 O   0  0  0  0  0  0  0  0  0  0  0  0
  132.2760  138.3030  149.9640 H   0  0  0  0  0  0  0  0  0  0  0  0
  139.2550  137.7170  149.9280 C   0  0  0  0  0  2  0  0  0  0  0  0
  140.6100  137.2090  150.4940 C   0  0  0  0  0  2  0  0  0  0  0  0
  140.9520  137.6300  151.9150 C   0  0  0  0  0  0  0  0  0  0  0  0
  142.2220  137.4210  152.4510 C   0  0  0  0  0  3  0  0  0  0  0  0
  142.5490  137.8860  153.7130 C   0  0  0  0  0  3  0  0  0  0  0  0
  141.5970  138.4940  154.5230 C   0  0  0  0  0  0  0  0  0  0  0  0
  140.2980  138.6830  154.0530 C   0  0  0  0  0  0  0  0  0  0  0  0
  139.9970  138.2670  152.7360 C   0  0  0  0  0  3  0  0  0  0  0  0
  141.9920  138.8290  155.7870 O   0  0  0  0  0  0  0  0  0  0  0  0
  141.4860  138.5520  156.5250 H   0  0  0  0  0  0  0  0  0  0  0  0
  139.2430  139.2470  154.7210 O   0  0  0  0  0  0  0  0  0  0  0  0
  138.0860  138.4510  154.9640 C   0  0  0  0  0  1  0  0  0  0  0  0
  1  2  2  0  0  0  0
  2 18  1  0  0  0  0
  3  2  1  0  0  0  0
  4  6  1  0  0  0  0
  4  1  1  0  0  0  0
  5  4  2  0  0  0  0
  7 10  1  0  0  0  0
  7  6  1  0  0  0  0
  8 15  1  0  0  0  0
  9  8  1  0  0  0  0
 10  9  2  0  0  0  0
 11 12  2  0  0  0  0
 11 10  1  0  0  0  0
 12 13  1  0  0  0  0
 13 16  1  0  0  0  0
 13  8  2  0  0  0  0
 15 14  1  0  0  0  0
 16 17  1  0  0  0  0
 18 19  1  0  0  0  0
 19 20  1  0  0  0  0
 20 21  2  0  0  0  0
 20 25  1  0  0  0  0
 21 22  1  0  0  0  0
 22 23  2  0  0  0  0
 23 26  1  0  0  0  0
 24 23  1  0  0  0  0
 24 28  1  0  0  0  0
 25 24  2  0  0  0  0
 26 27  1  0  0  0  0
 28 29  1  0  0  0  0
M  END
>  <MODEL>
9

>  <REMARK>
 VINA RESULT:    -6.758      2.828      7.514
 INTER + INTRA:         -11.654
 INTER:                 -10.500
 INTRA:                  -1.154
 UNBOUND:                -0.945
  Name = CHEMBL2323724
  13 active torsions:
  status: ('A' for Active; 'I' for Inactive)
    1  A    between atoms: C_1  and  O_2
    2  A    between atoms: O_2  and  C_3
    3  A    between atoms: C_5  and  C_6
    4  A    between atoms: C_6  and  C_7
    5  A    between atoms: C_7  and  C_8
    6  A    between atoms: C_8  and  C_10
    7  A    between atoms: C_11  and  C_13
    8  A    between atoms: C_13  and  C_14
    9  A    between atoms: C_14  and  C_15
   10  A    between atoms: C_18  and  O_19
   11  A    between atoms: C_20  and  O_21
   12  A    between atoms: O_21  and  C_22
   13  A    between atoms: C_26  and  O_27
                            x       y       z     vdW  Elec       q    Type
                         _______ _______ _______ _____ _____    ______ ____

>  <TORSDO>
F 11

>  <SCORE>
-6.758

>  <RMSD_LB>
2.828

>  <RMSD_UB>
7.514

$$$$
