CHEMBL99504
 OpenBabel10172500573D

 23 23  0  0  0  0  0  0  0  0999 V2000
  142.8390  138.6280  150.3170 N   0  0  0  0  0  0  0  0  0  0  0  0
  144.0480  139.1030  150.7650 C   0  0  0  0  0  0  0  0  0  0  0  0
  144.7340  138.5210  151.5990 O   0  0  0  0  0  0  0  0  0  0  0  0
  142.3400  139.1440  149.6420 H   0  0  0  0  0  0  0  0  0  0  0  0
  142.2830  137.3890  150.8110 C   0  0  0  0  0  2  0  0  0  0  0  0
  140.1170  138.3550  153.8110 C   0  0  0  0  0  0  0  0  0  0  0  0
  141.2310  138.0740  153.0110 C   0  0  0  0  0  3  0  0  0  0  0  0
  141.0760  137.6210  151.6860 C   0  0  0  0  0  0  0  0  0  0  0  0
  139.7820  137.4510  151.1720 C   0  0  0  0  0  3  0  0  0  0  0  0
  138.6640  137.7250  151.9620 C   0  0  0  0  0  3  0  0  0  0  0  0
  138.8370  138.1720  153.2710 C   0  0  0  0  0  0  0  0  0  0  0  0
  141.4070  138.6990  155.7840 C   0  0  0  0  0  1  0  0  0  0  0  0
  140.1680  138.8150  155.1000 O   0  0  0  0  0  0  0  0  0  0  0  0
  137.7390  138.4450  154.0440 O   0  0  0  0  0  0  0  0  0  0  0  0
  137.3610  137.7730  154.5750 H   0  0  0  0  0  0  0  0  0  0  0  0
  144.4580  140.4340  150.1630 C   0  0  0  0  0  2  0  0  0  0  0  0
  145.9620  140.4950  149.8830 C   0  0  0  0  0  2  0  0  0  0  0  0
  146.4180  141.7750  149.1660 C   0  0  0  0  0  2  0  0  0  0  0  0
  146.9990  142.8030  150.1400 C   0  0  0  0  0  2  0  0  0  0  0  0
  147.9420  142.2130  151.1450 C   0  0  0  0  0  3  0  0  0  0  0  0
  147.6260  142.0120  152.4410 C   0  0  0  0  0  0  0  0  0  0  0  0
  146.2770  142.3180  153.0350 C   0  0  0  0  0  1  0  0  0  0  0  0
  148.6320  141.4650  153.4160 C   0  0  0  0  0  1  0  0  0  0  0  0
  1  2  1  0  0  0  0
  1  5  1  0  0  0  0
  2  3  2  0  0  0  0
  4  1  1  0  0  0  0
  5  8  1  0  0  0  0
  6 13  1  0  0  0  0
  7  6  2  0  0  0  0
  8  7  1  0  0  0  0
  9  8  2  0  0  0  0
  9 10  1  0  0  0  0
 10 11  2  0  0  0  0
 11  6  1  0  0  0  0
 11 14  1  0  0  0  0
 13 12  1  0  0  0  0
 14 15  1  0  0  0  0
 16  2  1  0  0  0  0
 17 16  1  0  0  0  0
 18 17  1  0  0  0  0
 18 19  1  0  0  0  0
 19 20  1  0  0  0  0
 20 21  2  0  0  0  0
 21 22  1  0  0  0  0
 21 23  1  0  0  0  0
M  END
>  <MODEL>
1

>  <REMARK>
 VINA RESULT:    -6.113      0.000      0.000
 INTER + INTRA:         -10.364
 INTER:                  -9.615
 INTRA:                  -0.748
 UNBOUND:                -1.213
  Name = CHEMBL99504
  12 active torsions:
  status: ('A' for Active; 'I' for Inactive)
    1  A    between atoms: C_1  and  O_2
    2  A    between atoms: O_2  and  C_3
    3  A    between atoms: C_5  and  C_6
    4  A    between atoms: C_6  and  N_7
    5  A    between atoms: C_8  and  C_10
    6  A    between atoms: C_10  and  C_11
    7  A    between atoms: C_11  and  C_12
    8  A    between atoms: C_12  and  C_13
    9  A    between atoms: C_13  and  C_14
   10  A    between atoms: C_15  and  C_16
   11  A    between atoms: C_15  and  C_17
   12  A    between atoms: C_20  and  O_21
                            x       y       z     vdW  Elec       q    Type
                         _______ _______ _______ _____ _____    ______ ____

>  <TORSDO>
F 9

>  <SCORE>
-6.113

>  <RMSD_LB>
0.000

>  <RMSD_UB>
0.000

$$$$
CHEMBL99504
 OpenBabel10172500573D

 23 23  0  0  0  0  0  0  0  0999 V2000
  143.2830  138.4480  151.6420 N   0  0  0  0  0  0  0  0  0  0  0  0
  144.5270  138.9960  151.4450 C   0  0  0  0  0  0  0  0  0  0  0  0
  145.4250  138.9470  152.2810 O   0  0  0  0  0  0  0  0  0  0  0  0
  142.6080  138.5190  150.9280 H   0  0  0  0  0  0  0  0  0  0  0  0
  142.9410  137.7680  152.8710 C   0  0  0  0  0  2  0  0  0  0  0  0
  139.1250  137.9530  152.7300 C   0  0  0  0  0  0  0  0  0  0  0  0
  140.4630  137.7950  152.3510 C   0  0  0  0  0  3  0  0  0  0  0  0
  141.5070  138.0110  153.2710 C   0  0  0  0  0  0  0  0  0  0  0  0
  141.1900  138.3910  154.5830 C   0  0  0  0  0  3  0  0  0  0  0  0
  139.8590  138.5560  154.9710 C   0  0  0  0  0  3  0  0  0  0  0  0
  138.8390  138.3380  154.0470 C   0  0  0  0  0  0  0  0  0  0  0  0
  138.2900  137.6650  150.5180 C   0  0  0  0  0  1  0  0  0  0  0  0
  138.0440  137.7490  151.9140 O   0  0  0  0  0  0  0  0  0  0  0  0
  137.5320  138.4950  154.4300 O   0  0  0  0  0  0  0  0  0  0  0  0
  137.0160  137.7460  154.6520 H   0  0  0  0  0  0  0  0  0  0  0  0
  144.6970  139.7010  150.1130 C   0  0  0  0  0  2  0  0  0  0  0  0
  146.1640  140.0310  149.8250 C   0  0  0  0  0  2  0  0  0  0  0  0
  146.3930  141.4460  149.2690 C   0  0  0  0  0  2  0  0  0  0  0  0
  146.6250  142.4700  150.3820 C   0  0  0  0  0  2  0  0  0  0  0  0
  147.7830  142.1370  151.2740 C   0  0  0  0  0  3  0  0  0  0  0  0
  147.6860  142.0130  152.6140 C   0  0  0  0  0  0  0  0  0  0  0  0
  146.3970  142.1560  153.3800 C   0  0  0  0  0  1  0  0  0  0  0  0
  148.8940  141.7290  153.4630 C   0  0  0  0  0  1  0  0  0  0  0  0
  1  5  1  0  0  0  0
  2  1  1  0  0  0  0
  2  3  2  0  0  0  0
  4  1  1  0  0  0  0
  5  8  1  0  0  0  0
  6 11  1  0  0  0  0
  7  6  2  0  0  0  0
  7  8  1  0  0  0  0
  8  9  2  0  0  0  0
  9 10  1  0  0  0  0
 11 14  1  0  0  0  0
 11 10  2  0  0  0  0
 12 13  1  0  0  0  0
 13  6  1  0  0  0  0
 14 15  1  0  0  0  0
 16  2  1  0  0  0  0
 17 16  1  0  0  0  0
 18 17  1  0  0  0  0
 18 19  1  0  0  0  0
 19 20  1  0  0  0  0
 20 21  2  0  0  0  0
 21 22  1  0  0  0  0
 21 23  1  0  0  0  0
M  END
>  <MODEL>
2

>  <REMARK>
 VINA RESULT:    -6.109      1.097      2.153
 INTER + INTRA:         -10.357
 INTER:                  -9.508
 INTRA:                  -0.849
 UNBOUND:                -1.213
  Name = CHEMBL99504
  12 active torsions:
  status: ('A' for Active; 'I' for Inactive)
    1  A    between atoms: C_1  and  O_2
    2  A    between atoms: O_2  and  C_3
    3  A    between atoms: C_5  and  C_6
    4  A    between atoms: C_6  and  N_7
    5  A    between atoms: C_8  and  C_10
    6  A    between atoms: C_10  and  C_11
    7  A    between atoms: C_11  and  C_12
    8  A    between atoms: C_12  and  C_13
    9  A    between atoms: C_13  and  C_14
   10  A    between atoms: C_15  and  C_16
   11  A    between atoms: C_15  and  C_17
   12  A    between atoms: C_20  and  O_21
                            x       y       z     vdW  Elec       q    Type
                         _______ _______ _______ _____ _____    ______ ____

>  <TORSDO>
F 9

>  <SCORE>
-6.109

>  <RMSD_LB>
1.097

>  <RMSD_UB>
2.153

$$$$
CHEMBL99504
 OpenBabel10172500573D

 23 23  0  0  0  0  0  0  0  0999 V2000
  144.5920  138.9550  153.8990 N   0  0  0  0  0  0  0  0  0  0  0  0
  145.3210  137.7930  153.9720 C   0  0  0  0  0  0  0  0  0  0  0  0
  144.8100  136.6830  154.0880 O   0  0  0  0  0  0  0  0  0  0  0  0
  145.0650  139.8140  153.8020 H   0  0  0  0  0  0  0  0  0  0  0  0
  143.1480  138.9480  153.9600 C   0  0  0  0  0  2  0  0  0  0  0  0
  142.3390  139.3740  150.2470 C   0  0  0  0  0  0  0  0  0  0  0  0
  142.8590  139.5930  151.5290 C   0  0  0  0  0  3  0  0  0  0  0  0
  142.5250  138.7440  152.6010 C   0  0  0  0  0  0  0  0  0  0  0  0
  141.6560  137.6670  152.3710 C   0  0  0  0  0  3  0  0  0  0  0  0
  141.1280  137.4420  151.1000 C   0  0  0  0  0  3  0  0  0  0  0  0
  141.4690  138.2930  150.0500 C   0  0  0  0  0  0  0  0  0  0  0  0
  143.9100  139.9970  148.5690 C   0  0  0  0  0  1  0  0  0  0  0  0
  142.6180  140.1330  149.1420 O   0  0  0  0  0  0  0  0  0  0  0  0
  140.9550  138.0680  148.8000 O   0  0  0  0  0  0  0  0  0  0  0  0
  140.0280  138.0740  148.6670 H   0  0  0  0  0  0  0  0  0  0  0  0
  146.8230  137.9950  153.9280 C   0  0  0  0  0  2  0  0  0  0  0  0
  147.1990  139.3700  153.3690 C   0  0  0  0  0  2  0  0  0  0  0  0
  148.0160  140.2410  154.3360 C   0  0  0  0  0  2  0  0  0  0  0  0
  147.7080  141.7310  154.1670 C   0  0  0  0  0  2  0  0  0  0  0  0
  146.5870  142.0080  153.2100 C   0  0  0  0  0  3  0  0  0  0  0  0
  146.7690  142.2630  151.8970 C   0  0  0  0  0  0  0  0  0  0  0  0
  148.1130  142.2650  151.2200 C   0  0  0  0  0  1  0  0  0  0  0  0
  145.6100  142.5870  150.9960 C   0  0  0  0  0  1  0  0  0  0  0  0
  1  5  1  0  0  0  0
  1  2  1  0  0  0  0
  2  3  2  0  0  0  0
  4  1  1  0  0  0  0
  6  7  1  0  0  0  0
  7  8  2  0  0  0  0
  8  5  1  0  0  0  0
  9  8  1  0  0  0  0
 10  9  2  0  0  0  0
 11  6  2  0  0  0  0
 11 10  1  0  0  0  0
 12 13  1  0  0  0  0
 13  6  1  0  0  0  0
 14 11  1  0  0  0  0
 15 14  1  0  0  0  0
 16  2  1  0  0  0  0
 17 16  1  0  0  0  0
 17 18  1  0  0  0  0
 19 18  1  0  0  0  0
 20 19  1  0  0  0  0
 21 20  2  0  0  0  0
 22 21  1  0  0  0  0
 23 21  1  0  0  0  0
M  END
>  <MODEL>
3

>  <REMARK>
 VINA RESULT:    -6.077      2.614      4.215
 INTER + INTRA:         -10.310
 INTER:                  -9.297
 INTRA:                  -1.012
 UNBOUND:                -1.213
  Name = CHEMBL99504
  12 active torsions:
  status: ('A' for Active; 'I' for Inactive)
    1  A    between atoms: C_1  and  O_2
    2  A    between atoms: O_2  and  C_3
    3  A    between atoms: C_5  and  C_6
    4  A    between atoms: C_6  and  N_7
    5  A    between atoms: C_8  and  C_10
    6  A    between atoms: C_10  and  C_11
    7  A    between atoms: C_11  and  C_12
    8  A    between atoms: C_12  and  C_13
    9  A    between atoms: C_13  and  C_14
   10  A    between atoms: C_15  and  C_16
   11  A    between atoms: C_15  and  C_17
   12  A    between atoms: C_20  and  O_21
                            x       y       z     vdW  Elec       q    Type
                         _______ _______ _______ _____ _____    ______ ____

>  <TORSDO>
F 9

>  <SCORE>
-6.077

>  <RMSD_LB>
2.614

>  <RMSD_UB>
4.215

$$$$
CHEMBL99504
 OpenBabel10172500573D

 23 23  0  0  0  0  0  0  0  0999 V2000
  143.7380  140.4830  150.6260 N   0  0  0  0  0  0  0  0  0  0  0  0
  142.8690  140.0110  149.6730 C   0  0  0  0  0  0  0  0  0  0  0  0
  143.2100  139.7320  148.5280 O   0  0  0  0  0  0  0  0  0  0  0  0
  143.3990  140.6840  151.5290 H   0  0  0  0  0  0  0  0  0  0  0  0
  145.1390  140.6900  150.3360 C   0  0  0  0  0  2  0  0  0  0  0  0
  147.7470  140.1370  153.0770 C   0  0  0  0  0  0  0  0  0  0  0  0
  146.9390  139.9390  151.9510 C   0  0  0  0  0  3  0  0  0  0  0  0
  145.9550  140.8800  151.5910 C   0  0  0  0  0  0  0  0  0  0  0  0
  145.7900  142.0280  152.3800 C   0  0  0  0  0  3  0  0  0  0  0  0
  146.5880  142.2340  153.5060 C   0  0  0  0  0  3  0  0  0  0  0  0
  147.5560  141.2920  153.8480 C   0  0  0  0  0  0  0  0  0  0  0  0
  148.3380  138.0640  154.0910 C   0  0  0  0  0  1  0  0  0  0  0  0
  148.7380  139.2890  153.4950 O   0  0  0  0  0  0  0  0  0  0  0  0
  148.3420  141.4960  154.9520 O   0  0  0  0  0  0  0  0  0  0  0  0
  147.9470  141.6360  155.7890 H   0  0  0  0  0  0  0  0  0  0  0  0
  141.4320  139.8900  150.1430 C   0  0  0  0  0  2  0  0  0  0  0  0
  140.9560  138.4340  150.1560 C   0  0  0  0  0  2  0  0  0  0  0  0
  140.6060  137.8990  151.5540 C   0  0  0  0  0  2  0  0  0  0  0  0
  141.8410  137.3890  152.3000 C   0  0  0  0  0  2  0  0  0  0  0  0
  142.4620  138.4120  153.2040 C   0  0  0  0  0  3  0  0  0  0  0  0
  143.7260  138.3320  153.6690 C   0  0  0  0  0  0  0  0  0  0  0  0
  144.6860  137.2290  153.3100 C   0  0  0  0  0  1  0  0  0  0  0  0
  144.2780  139.3610  154.6160 C   0  0  0  0  0  1  0  0  0  0  0  0
  1  4  1  0  0  0  0
  2 16  1  0  0  0  0
  2  1  1  0  0  0  0
  3  2  2  0  0  0  0
  5  1  1  0  0  0  0
  5  8  1  0  0  0  0
  6 13  1  0  0  0  0
  6 11  1  0  0  0  0
  7  6  2  0  0  0  0
  8  7  1  0  0  0  0
  8  9  2  0  0  0  0
  9 10  1  0  0  0  0
 10 11  2  0  0  0  0
 11 14  1  0  0  0  0
 13 12  1  0  0  0  0
 14 15  1  0  0  0  0
 16 17  1  0  0  0  0
 17 18  1  0  0  0  0
 18 19  1  0  0  0  0
 19 20  1  0  0  0  0
 20 21  2  0  0  0  0
 21 23  1  0  0  0  0
 22 21  1  0  0  0  0
M  END
>  <MODEL>
4

>  <REMARK>
 VINA RESULT:    -5.999      2.987      6.691
 INTER + INTRA:         -10.192
 INTER:                  -8.631
 INTRA:                  -1.561
 UNBOUND:                -1.213
  Name = CHEMBL99504
  12 active torsions:
  status: ('A' for Active; 'I' for Inactive)
    1  A    between atoms: C_1  and  O_2
    2  A    between atoms: O_2  and  C_3
    3  A    between atoms: C_5  and  C_6
    4  A    between atoms: C_6  and  N_7
    5  A    between atoms: C_8  and  C_10
    6  A    between atoms: C_10  and  C_11
    7  A    between atoms: C_11  and  C_12
    8  A    between atoms: C_12  and  C_13
    9  A    between atoms: C_13  and  C_14
   10  A    between atoms: C_15  and  C_16
   11  A    between atoms: C_15  and  C_17
   12  A    between atoms: C_20  and  O_21
                            x       y       z     vdW  Elec       q    Type
                         _______ _______ _______ _____ _____    ______ ____

>  <TORSDO>
F 9

>  <SCORE>
-5.999

>  <RMSD_LB>
2.987

>  <RMSD_UB>
6.691

$$$$
CHEMBL99504
 OpenBabel10172500573D

 23 23  0  0  0  0  0  0  0  0999 V2000
  146.1960  137.5200  150.4140 N   0  0  0  0  0  0  0  0  0  0  0  0
  146.5780  138.7720  149.9950 C   0  0  0  0  0  0  0  0  0  0  0  0
  147.6070  139.3240  150.3730 O   0  0  0  0  0  0  0  0  0  0  0  0
  145.3590  137.1320  150.0690 H   0  0  0  0  0  0  0  0  0  0  0  0
  146.9930  136.7600  151.3500 C   0  0  0  0  0  2  0  0  0  0  0  0
  145.7510  138.4090  154.5680 C   0  0  0  0  0  0  0  0  0  0  0  0
  145.7910  137.9010  153.2640 C   0  0  0  0  0  3  0  0  0  0  0  0
  146.9800  137.3680  152.7300 C   0  0  0  0  0  0  0  0  0  0  0  0
  148.1360  137.3520  153.5250 C   0  0  0  0  0  3  0  0  0  0  0  0
  148.1080  137.8590  154.8250 C   0  0  0  0  0  3  0  0  0  0  0  0
  146.9220  138.3830  155.3370 C   0  0  0  0  0  0  0  0  0  0  0  0
  143.5540  139.3020  154.3430 C   0  0  0  0  0  1  0  0  0  0  0  0
  144.6410  138.9300  155.1780 O   0  0  0  0  0  0  0  0  0  0  0  0
  146.8950  138.8760  156.6150 O   0  0  0  0  0  0  0  0  0  0  0  0
  147.5180  138.5770  157.2470 H   0  0  0  0  0  0  0  0  0  0  0  0
  145.6030  139.4360  149.0420 C   0  0  0  0  0  2  0  0  0  0  0  0
  145.3330  140.8940  149.4270 C   0  0  0  0  0  2  0  0  0  0  0  0
  146.3740  141.8890  148.8900 C   0  0  0  0  0  2  0  0  0  0  0  0
  147.0300  142.6950  150.0130 C   0  0  0  0  0  2  0  0  0  0  0  0
  146.3830  142.4990  151.3520 C   0  0  0  0  0  3  0  0  0  0  0  0
  147.0580  142.1440  152.4650 C   0  0  0  0  0  0  0  0  0  0  0  0
  148.5480  141.9350  152.5150 C   0  0  0  0  0  1  0  0  0  0  0  0
  146.3470  141.9100  153.7690 C   0  0  0  0  0  1  0  0  0  0  0  0
  1  5  1  0  0  0  0
  2  3  2  0  0  0  0
  2  1  1  0  0  0  0
  4  1  1  0  0  0  0
  5  8  1  0  0  0  0
  6 13  1  0  0  0  0
  6 11  1  0  0  0  0
  7  6  2  0  0  0  0
  8  7  1  0  0  0  0
  8  9  2  0  0  0  0
  9 10  1  0  0  0  0
 10 11  2  0  0  0  0
 11 14  1  0  0  0  0
 12 13  1  0  0  0  0
 14 15  1  0  0  0  0
 16 17  1  0  0  0  0
 16  2  1  0  0  0  0
 18 17  1  0  0  0  0
 18 19  1  0  0  0  0
 19 20  1  0  0  0  0
 20 21  2  0  0  0  0
 21 22  1  0  0  0  0
 21 23  1  0  0  0  0
M  END
>  <MODEL>
5

>  <REMARK>
 VINA RESULT:    -5.776      3.459      4.979
 INTER + INTRA:          -9.858
 INTER:                  -8.718
 INTRA:                  -1.140
 UNBOUND:                -1.213
  Name = CHEMBL99504
  12 active torsions:
  status: ('A' for Active; 'I' for Inactive)
    1  A    between atoms: C_1  and  O_2
    2  A    between atoms: O_2  and  C_3
    3  A    between atoms: C_5  and  C_6
    4  A    between atoms: C_6  and  N_7
    5  A    between atoms: C_8  and  C_10
    6  A    between atoms: C_10  and  C_11
    7  A    between atoms: C_11  and  C_12
    8  A    between atoms: C_12  and  C_13
    9  A    between atoms: C_13  and  C_14
   10  A    between atoms: C_15  and  C_16
   11  A    between atoms: C_15  and  C_17
   12  A    between atoms: C_20  and  O_21
                            x       y       z     vdW  Elec       q    Type
                         _______ _______ _______ _____ _____    ______ ____

>  <TORSDO>
F 9

>  <SCORE>
-5.776

>  <RMSD_LB>
3.459

>  <RMSD_UB>
4.979

$$$$
CHEMBL99504
 OpenBabel10172500573D

 23 23  0  0  0  0  0  0  0  0999 V2000
  146.1560  139.5060  149.7090 N   0  0  0  0  0  0  0  0  0  0  0  0
  144.8440  139.2690  149.3790 C   0  0  0  0  0  0  0  0  0  0  0  0
  144.0060  140.1590  149.2620 O   0  0  0  0  0  0  0  0  0  0  0  0
  146.7780  138.7460  149.7820 H   0  0  0  0  0  0  0  0  0  0  0  0
  146.6460  140.8450  149.9500 C   0  0  0  0  0  2  0  0  0  0  0  0
  147.2500  140.4000  153.6990 C   0  0  0  0  0  0  0  0  0  0  0  0
  146.6660  140.3270  152.4280 C   0  0  0  0  0  3  0  0  0  0  0  0
  147.2430  140.9890  151.3270 C   0  0  0  0  0  0  0  0  0  0  0  0
  148.4180  141.7310  151.5180 C   0  0  0  0  0  3  0  0  0  0  0  0
  149.0060  141.8140  152.7810 C   0  0  0  0  0  3  0  0  0  0  0  0
  148.4210  141.1520  153.8600 C   0  0  0  0  0  0  0  0  0  0  0  0
  146.6780  138.3620  154.7920 C   0  0  0  0  0  1  0  0  0  0  0  0
  146.7730  139.7780  154.8220 O   0  0  0  0  0  0  0  0  0  0  0  0
  149.0010  141.2300  155.0990 O   0  0  0  0  0  0  0  0  0  0  0  0
  148.8130  140.5800  155.7460 H   0  0  0  0  0  0  0  0  0  0  0  0
  144.5000  137.8030  149.1980 C   0  0  0  0  0  2  0  0  0  0  0  0
  144.6230  137.0220  150.5100 C   0  0  0  0  0  2  0  0  0  0  0  0
  143.5730  137.4000  151.5670 C   0  0  0  0  0  2  0  0  0  0  0  0
  142.1450  137.2230  151.0480 C   0  0  0  0  0  2  0  0  0  0  0  0
  141.0900  137.5880  152.0500 C   0  0  0  0  0  3  0  0  0  0  0  0
  139.7690  137.6030  151.7750 C   0  0  0  0  0  0  0  0  0  0  0  0
  139.1830  137.2200  150.4420 C   0  0  0  0  0  1  0  0  0  0  0  0
  138.7610  138.0300  152.8060 C   0  0  0  0  0  1  0  0  0  0  0  0
  1  4  1  0  0  0  0
  1  5  1  0  0  0  0
  2  1  1  0  0  0  0
  3  2  2  0  0  0  0
  5  8  1  0  0  0  0
  6 11  1  0  0  0  0
  6 13  1  0  0  0  0
  7  6  2  0  0  0  0
  8  9  2  0  0  0  0
  8  7  1  0  0  0  0
  9 10  1  0  0  0  0
 10 11  2  0  0  0  0
 11 14  1  0  0  0  0
 12 13  1  0  0  0  0
 14 15  1  0  0  0  0
 16  2  1  0  0  0  0
 16 17  1  0  0  0  0
 17 18  1  0  0  0  0
 19 18  1  0  0  0  0
 19 20  1  0  0  0  0
 21 20  2  0  0  0  0
 21 23  1  0  0  0  0
 22 21  1  0  0  0  0
M  END
>  <MODEL>
6

>  <REMARK>
 VINA RESULT:    -5.695      2.840      7.485
 INTER + INTRA:          -9.738
 INTER:                  -8.889
 INTRA:                  -0.849
 UNBOUND:                -1.213
  Name = CHEMBL99504
  12 active torsions:
  status: ('A' for Active; 'I' for Inactive)
    1  A    between atoms: C_1  and  O_2
    2  A    between atoms: O_2  and  C_3
    3  A    between atoms: C_5  and  C_6
    4  A    between atoms: C_6  and  N_7
    5  A    between atoms: C_8  and  C_10
    6  A    between atoms: C_10  and  C_11
    7  A    between atoms: C_11  and  C_12
    8  A    between atoms: C_12  and  C_13
    9  A    between atoms: C_13  and  C_14
   10  A    between atoms: C_15  and  C_16
   11  A    between atoms: C_15  and  C_17
   12  A    between atoms: C_20  and  O_21
                            x       y       z     vdW  Elec       q    Type
                         _______ _______ _______ _____ _____    ______ ____

>  <TORSDO>
F 9

>  <SCORE>
-5.695

>  <RMSD_LB>
2.840

>  <RMSD_UB>
7.485

$$$$
CHEMBL99504
 OpenBabel10172500573D

 23 23  0  0  0  0  0  0  0  0999 V2000
  146.7420  140.2280  150.6350 N   0  0  0  0  0  0  0  0  0  0  0  0
  147.0160  141.5740  150.6010 C   0  0  0  0  0  0  0  0  0  0  0  0
  146.5560  142.3340  149.7550 O   0  0  0  0  0  0  0  0  0  0  0  0
  147.1420  139.6730  151.3450 H   0  0  0  0  0  0  0  0  0  0  0  0
  145.8820  139.6060  149.6540 C   0  0  0  0  0  2  0  0  0  0  0  0
  142.3040  139.1830  150.9350 C   0  0  0  0  0  0  0  0  0  0  0  0
  143.4710  139.7550  150.4140 C   0  0  0  0  0  3  0  0  0  0  0  0
  144.6520  138.9990  150.2840 C   0  0  0  0  0  0  0  0  0  0  0  0
  144.6490  137.6560  150.6870 C   0  0  0  0  0  3  0  0  0  0  0  0
  143.4930  137.0770  151.2120 C   0  0  0  0  0  3  0  0  0  0  0  0
  142.3330  137.8400  151.3340 C   0  0  0  0  0  0  0  0  0  0  0  0
  140.3860  140.1460  149.9020 C   0  0  0  0  0  1  0  0  0  0  0  0
  141.1070  139.8310  151.0840 O   0  0  0  0  0  0  0  0  0  0  0  0
  141.1960  137.2690  151.8450 O   0  0  0  0  0  0  0  0  0  0  0  0
  141.1530  136.3420  151.9700 H   0  0  0  0  0  0  0  0  0  0  0  0
  147.9660  142.0450  151.6850 C   0  0  0  0  0  2  0  0  0  0  0  0
  147.3270  141.9710  153.0750 C   0  0  0  0  0  2  0  0  0  0  0  0
  148.2830  141.4980  154.1820 C   0  0  0  0  0  2  0  0  0  0  0  0
  148.6090  140.0080  154.0600 C   0  0  0  0  0  2  0  0  0  0  0  0
  147.4610  139.1100  154.4110 C   0  0  0  0  0  3  0  0  0  0  0  0
  147.1630  137.9770  153.7390 C   0  0  0  0  0  0  0  0  0  0  0  0
  147.9660  137.4520  152.5790 C   0  0  0  0  0  1  0  0  0  0  0  0
  145.9660  137.1440  154.1040 C   0  0  0  0  0  1  0  0  0  0  0  0
  1  4  1  0  0  0  0
  2  1  1  0  0  0  0
  2 16  1  0  0  0  0
  3  2  2  0  0  0  0
  5  8  1  0  0  0  0
  5  1  1  0  0  0  0
  6 13  1  0  0  0  0
  6 11  1  0  0  0  0
  7  6  2  0  0  0  0
  8  7  1  0  0  0  0
  8  9  2  0  0  0  0
  9 10  1  0  0  0  0
 10 11  2  0  0  0  0
 11 14  1  0  0  0  0
 12 13  1  0  0  0  0
 14 15  1  0  0  0  0
 16 17  1  0  0  0  0
 17 18  1  0  0  0  0
 19 18  1  0  0  0  0
 19 20  1  0  0  0  0
 21 23  1  0  0  0  0
 21 20  2  0  0  0  0
 22 21  1  0  0  0  0
M  END
>  <MODEL>
7

>  <REMARK>
 VINA RESULT:    -5.631      2.686      4.547
 INTER + INTRA:          -9.642
 INTER:                  -8.151
 INTRA:                  -1.491
 UNBOUND:                -1.213
  Name = CHEMBL99504
  12 active torsions:
  status: ('A' for Active; 'I' for Inactive)
    1  A    between atoms: C_1  and  O_2
    2  A    between atoms: O_2  and  C_3
    3  A    between atoms: C_5  and  C_6
    4  A    between atoms: C_6  and  N_7
    5  A    between atoms: C_8  and  C_10
    6  A    between atoms: C_10  and  C_11
    7  A    between atoms: C_11  and  C_12
    8  A    between atoms: C_12  and  C_13
    9  A    between atoms: C_13  and  C_14
   10  A    between atoms: C_15  and  C_16
   11  A    between atoms: C_15  and  C_17
   12  A    between atoms: C_20  and  O_21
                            x       y       z     vdW  Elec       q    Type
                         _______ _______ _______ _____ _____    ______ ____

>  <TORSDO>
F 9

>  <SCORE>
-5.631

>  <RMSD_LB>
2.686

>  <RMSD_UB>
4.547

$$$$
CHEMBL99504
 OpenBabel10172500573D

 23 23  0  0  0  0  0  0  0  0999 V2000
  141.4450  139.3560  154.2180 N   0  0  0  0  0  0  0  0  0  0  0  0
  140.1760  138.9570  154.5630 C   0  0  0  0  0  0  0  0  0  0  0  0
  139.8660  138.6000  155.6950 O   0  0  0  0  0  0  0  0  0  0  0  0
  141.6260  139.6350  153.2900 H   0  0  0  0  0  0  0  0  0  0  0  0
  142.5200  139.3770  155.1840 C   0  0  0  0  0  2  0  0  0  0  0  0
  146.2240  139.3020  154.2390 C   0  0  0  0  0  0  0  0  0  0  0  0
  144.9880  139.7280  154.7380 C   0  0  0  0  0  3  0  0  0  0  0  0
  143.8320  138.9400  154.5790 C   0  0  0  0  0  0  0  0  0  0  0  0
  143.9320  137.7120  153.9090 C   0  0  0  0  0  3  0  0  0  0  0  0
  145.1580  137.2790  153.4040 C   0  0  0  0  0  3  0  0  0  0  0  0
  146.2920  138.0720  153.5700 C   0  0  0  0  0  0  0  0  0  0  0  0
  147.3680  141.3880  154.1200 C   0  0  0  0  0  1  0  0  0  0  0  0
  147.4030  139.9890  154.3590 O   0  0  0  0  0  0  0  0  0  0  0  0
  147.4980  137.6440  153.0780 O   0  0  0  0  0  0  0  0  0  0  0  0
  147.6570  137.6530  152.1550 H   0  0  0  0  0  0  0  0  0  0  0  0
  139.1850  138.9640  153.4140 C   0  0  0  0  0  2  0  0  0  0  0  0
  139.2490  137.6700  152.5980 C   0  0  0  0  0  2  0  0  0  0  0  0
  140.0160  137.8000  151.2720 C   0  0  0  0  0  2  0  0  0  0  0  0
  141.4500  137.2770  151.3850 C   0  0  0  0  0  2  0  0  0  0  0  0
  142.2970  137.5830  150.1860 C   0  0  0  0  0  3  0  0  0  0  0  0
  142.9810  138.7350  150.0270 C   0  0  0  0  0  0  0  0  0  0  0  0
  143.0110  139.8430  151.0460 C   0  0  0  0  0  1  0  0  0  0  0  0
  143.7730  139.0090  148.7780 C   0  0  0  0  0  1  0  0  0  0  0  0
  1  2  1  0  0  0  0
  1  5  1  0  0  0  0
  2  3  2  0  0  0  0
  4  1  1  0  0  0  0
  6 13  1  0  0  0  0
  6  7  1  0  0  0  0
  8  7  2  0  0  0  0
  8  5  1  0  0  0  0
  9  8  1  0  0  0  0
 10 11  1  0  0  0  0
 10  9  2  0  0  0  0
 11  6  2  0  0  0  0
 12 13  1  0  0  0  0
 14 11  1  0  0  0  0
 15 14  1  0  0  0  0
 16  2  1  0  0  0  0
 17 16  1  0  0  0  0
 18 19  1  0  0  0  0
 18 17  1  0  0  0  0
 20 19  1  0  0  0  0
 21 20  2  0  0  0  0
 21 22  1  0  0  0  0
 23 21  1  0  0  0  0
M  END
>  <MODEL>
8

>  <REMARK>
 VINA RESULT:    -5.414      2.428      6.537
 INTER + INTRA:          -9.317
 INTER:                  -7.840
 INTRA:                  -1.477
 UNBOUND:                -1.213
  Name = CHEMBL99504
  12 active torsions:
  status: ('A' for Active; 'I' for Inactive)
    1  A    between atoms: C_1  and  O_2
    2  A    between atoms: O_2  and  C_3
    3  A    between atoms: C_5  and  C_6
    4  A    between atoms: C_6  and  N_7
    5  A    between atoms: C_8  and  C_10
    6  A    between atoms: C_10  and  C_11
    7  A    between atoms: C_11  and  C_12
    8  A    between atoms: C_12  and  C_13
    9  A    between atoms: C_13  and  C_14
   10  A    between atoms: C_15  and  C_16
   11  A    between atoms: C_15  and  C_17
   12  A    between atoms: C_20  and  O_21
                            x       y       z     vdW  Elec       q    Type
                         _______ _______ _______ _____ _____    ______ ____

>  <TORSDO>
F 9

>  <SCORE>
-5.414

>  <RMSD_LB>
2.428

>  <RMSD_UB>
6.537

$$$$
CHEMBL99504
 OpenBabel10172500573D

 23 23  0  0  0  0  0  0  0  0999 V2000
  136.4070  132.4890  145.4440 N   0  0  0  0  0  0  0  0  0  0  0  0
  136.1320  131.8280  144.2720 C   0  0  0  0  0  0  0  0  0  0  0  0
  135.0660  131.2610  144.0510 O   0  0  0  0  0  0  0  0  0  0  0  0
  137.2820  132.9270  145.5560 H   0  0  0  0  0  0  0  0  0  0  0  0
  135.4410  132.5580  146.5180 C   0  0  0  0  0  2  0  0  0  0  0  0
  133.7400  135.6560  147.9770 C   0  0  0  0  0  0  0  0  0  0  0  0
  134.2690  134.3660  147.8480 C   0  0  0  0  0  3  0  0  0  0  0  0
  134.8100  133.9240  146.6250 C   0  0  0  0  0  0  0  0  0  0  0  0
  134.8120  134.7960  145.5270 C   0  0  0  0  0  3  0  0  0  0  0  0
  134.2840  136.0830  145.6420 C   0  0  0  0  0  3  0  0  0  0  0  0
  133.7530  136.5040  146.8600 C   0  0  0  0  0  0  0  0  0  0  0  0
  133.8810  135.8910  150.3430 C   0  0  0  0  0  1  0  0  0  0  0  0
  133.2100  136.1800  149.1250 O   0  0  0  0  0  0  0  0  0  0  0  0
  133.2380  137.7690  146.9750 O   0  0  0  0  0  0  0  0  0  0  0  0
  132.8020  138.0270  147.7620 H   0  0  0  0  0  0  0  0  0  0  0  0
  137.2730  131.8270  143.2730 C   0  0  0  0  0  2  0  0  0  0  0  0
  137.0330  132.8190  142.1310 C   0  0  0  0  0  2  0  0  0  0  0  0
  137.0440  134.2930  142.5660 C   0  0  0  0  0  2  0  0  0  0  0  0
  138.3890  134.7030  143.1700 C   0  0  0  0  0  2  0  0  0  0  0  0
  138.2770  135.2740  144.5530 C   0  0  0  0  0  3  0  0  0  0  0  0
  139.3090  135.8350  145.2170 C   0  0  0  0  0  0  0  0  0  0  0  0
  140.6920  135.9930  144.6430 C   0  0  0  0  0  1  0  0  0  0  0  0
  139.1510  136.3430  146.6230 C   0  0  0  0  0  1  0  0  0  0  0  0
  1  4  1  0  0  0  0
  1  5  1  0  0  0  0
  2  1  1  0  0  0  0
  3  2  2  0  0  0  0
  5  8  1  0  0  0  0
  6 13  1  0  0  0  0
  7  6  1  0  0  0  0
  8  7  2  0  0  0  0
  9 10  2  0  0  0  0
  9  8  1  0  0  0  0
 10 11  1  0  0  0  0
 11 14  1  0  0  0  0
 11  6  2  0  0  0  0
 13 12  1  0  0  0  0
 14 15  1  0  0  0  0
 16  2  1  0  0  0  0
 17 18  1  0  0  0  0
 17 16  1  0  0  0  0
 18 19  1  0  0  0  0
 19 20  1  0  0  0  0
 20 21  2  0  0  0  0
 21 23  1  0  0  0  0
 22 21  1  0  0  0  0
M  END
>  <MODEL>
9

>  <REMARK>
 VINA RESULT:    -5.306      8.941     11.231
 INTER + INTRA:          -9.155
 INTER:                  -7.942
 INTRA:                  -1.213
 UNBOUND:                -1.213
  Name = CHEMBL99504
  12 active torsions:
  status: ('A' for Active; 'I' for Inactive)
    1  A    between atoms: C_1  and  O_2
    2  A    between atoms: O_2  and  C_3
    3  A    between atoms: C_5  and  C_6
    4  A    between atoms: C_6  and  N_7
    5  A    between atoms: C_8  and  C_10
    6  A    between atoms: C_10  and  C_11
    7  A    between atoms: C_11  and  C_12
    8  A    between atoms: C_12  and  C_13
    9  A    between atoms: C_13  and  C_14
   10  A    between atoms: C_15  and  C_16
   11  A    between atoms: C_15  and  C_17
   12  A    between atoms: C_20  and  O_21
                            x       y       z     vdW  Elec       q    Type
                         _______ _______ _______ _____ _____    ______ ____

>  <TORSDO>
F 9

>  <SCORE>
-5.306

>  <RMSD_LB>
8.941

>  <RMSD_UB>
11.231

$$$$
