CHEMBL1288698
 OpenBabel10162523533D

 23 24  0  0  0  0  0  0  0  0999 V2000
  144.6160  139.0590  153.8520 C   0  0  0  0  0  0  0  0  0  0  0  0
  144.8090  139.2830  155.0520 O   0  0  0  0  0  0  0  0  0  0  0  0
  145.0240  140.1110  152.8720 C   0  0  0  0  0  0  0  0  0  0  0  0
  144.3660  140.1050  151.6260 C   0  0  0  0  0  3  0  0  0  0  0  0
  144.6020  141.1100  150.6830 C   0  0  0  0  0  3  0  0  0  0  0  0
  145.5000  142.1220  150.9850 C   0  0  0  0  0  0  0  0  0  0  0  0
  146.1820  142.1330  152.1970 C   0  0  0  0  0  3  0  0  0  0  0  0
  145.9380  141.1330  153.1420 C   0  0  0  0  0  0  0  0  0  0  0  0
  145.7330  143.1540  150.1250 O   0  0  0  0  0  0  0  0  0  0  0  0
  145.3130  143.1690  149.2870 H   0  0  0  0  0  0  0  0  0  0  0  0
  146.5700  141.2230  154.3490 O   0  0  0  0  0  0  0  0  0  0  0  0
  147.4950  141.3720  154.3840 H   0  0  0  0  0  0  0  0  0  0  0  0
  143.9080  137.7870  153.4130 C   0  0  0  0  0  2  0  0  0  0  0  0
  140.2350  138.3190  154.3820 C   0  0  0  0  0  0  0  0  0  0  0  0
  141.6300  138.2390  154.4580 C   0  0  0  0  0  3  0  0  0  0  0  0
  142.4020  137.8980  153.3360 C   0  0  0  0  0  0  0  0  0  0  0  0
  141.7470  137.5740  152.1370 C   0  0  0  0  0  3  0  0  0  0  0  0
  140.3550  137.6220  152.0530 C   0  0  0  0  0  3  0  0  0  0  0  0
  139.6080  138.0030  153.1700 C   0  0  0  0  0  0  0  0  0  0  0  0
  139.2060  137.7210  156.4420 C   0  0  0  0  0  1  0  0  0  0  0  0
  139.4190  138.6850  155.4200 O   0  0  0  0  0  0  0  0  0  0  0  0
  138.2440  138.0590  153.0810 O   0  0  0  0  0  0  0  0  0  0  0  0
  137.8390  138.5310  152.3810 H   0  0  0  0  0  0  0  0  0  0  0  0
  1  2  2  0  0  0  0
  3  8  1  0  0  0  0
  3  1  1  0  0  0  0
  4  3  2  0  0  0  0
  5  6  2  0  0  0  0
  5  4  1  0  0  0  0
  6  7  1  0  0  0  0
  7  8  2  0  0  0  0
  8 11  1  0  0  0  0
  9  6  1  0  0  0  0
 10  9  1  0  0  0  0
 11 12  1  0  0  0  0
 13  1  1  0  0  0  0
 14 15  1  0  0  0  0
 14 21  1  0  0  0  0
 16 13  1  0  0  0  0
 16 15  2  0  0  0  0
 17 16  1  0  0  0  0
 18 17  2  0  0  0  0
 18 19  1  0  0  0  0
 19 14  2  0  0  0  0
 21 20  1  0  0  0  0
 22 19  1  0  0  0  0
 23 22  1  0  0  0  0
M  END
>  <MODEL>
1

>  <REMARK>
 VINA RESULT:    -6.970      0.000      0.000
 INTER + INTRA:         -10.013
 INTER:                  -9.238
 INTRA:                  -0.775
 UNBOUND:                -0.801
  Name = CHEMBL1288698
  8 active torsions:
  status: ('A' for Active; 'I' for Inactive)
    1  A    between atoms: C_1  and  O_2
    2  A    between atoms: O_2  and  C_3
    3  A    between atoms: C_5  and  C_6
    4  A    between atoms: C_6  and  C_7
    5  A    between atoms: C_7  and  C_9
    6  A    between atoms: C_12  and  O_13
    7  A    between atoms: C_15  and  O_16
    8  A    between atoms: C_19  and  O_20
                            x       y       z     vdW  Elec       q    Type
                         _______ _______ _______ _____ _____    ______ ____

>  <TORSDO>
F 7

>  <SCORE>
-6.970

>  <RMSD_LB>
0.000

>  <RMSD_UB>
0.000

$$$$
CHEMBL1288698
 OpenBabel10162523533D

 23 24  0  0  0  0  0  0  0  0999 V2000
  135.7280  135.4740  152.7170 C   0  0  0  0  0  0  0  0  0  0  0  0
  135.5880  136.5980  152.2220 O   0  0  0  0  0  0  0  0  0  0  0  0
  135.7490  135.3680  154.2080 C   0  0  0  0  0  0  0  0  0  0  0  0
  136.8700  135.9120  154.8660 C   0  0  0  0  0  3  0  0  0  0  0  0
  136.9340  135.9560  156.2620 C   0  0  0  0  0  3  0  0  0  0  0  0
  135.8760  135.4530  157.0030 C   0  0  0  0  0  0  0  0  0  0  0  0
  134.7720  134.8850  156.3760 C   0  0  0  0  0  3  0  0  0  0  0  0
  134.7050  134.8510  154.9810 C   0  0  0  0  0  0  0  0  0  0  0  0
  135.8620  135.5130  158.3650 O   0  0  0  0  0  0  0  0  0  0  0  0
  135.0450  135.5600  158.8230 H   0  0  0  0  0  0  0  0  0  0  0  0
  133.5690  134.3570  154.4050 O   0  0  0  0  0  0  0  0  0  0  0  0
  133.0880  134.8800  153.7930 H   0  0  0  0  0  0  0  0  0  0  0  0
  135.9550  134.2650  151.8260 C   0  0  0  0  0  2  0  0  0  0  0  0
  134.3400  134.1620  148.3490 C   0  0  0  0  0  0  0  0  0  0  0  0
  135.2890  134.2950  149.3680 C   0  0  0  0  0  3  0  0  0  0  0  0
  134.9420  134.1010  150.7140 C   0  0  0  0  0  0  0  0  0  0  0  0
  133.6030  133.8300  151.0360 C   0  0  0  0  0  3  0  0  0  0  0  0
  132.6400  133.7220  150.0330 C   0  0  0  0  0  3  0  0  0  0  0  0
  133.0130  133.8780  148.6970 C   0  0  0  0  0  0  0  0  0  0  0  0
  135.3750  133.2610  146.4050 C   0  0  0  0  0  1  0  0  0  0  0  0
  134.6110  134.2940  147.0110 O   0  0  0  0  0  0  0  0  0  0  0  0
  132.0690  133.7610  147.7140 O   0  0  0  0  0  0  0  0  0  0  0  0
  132.1930  133.1490  147.0150 H   0  0  0  0  0  0  0  0  0  0  0  0
  1  3  1  0  0  0  0
  2  1  2  0  0  0  0
  3  4  2  0  0  0  0
  3  8  1  0  0  0  0
  4  5  1  0  0  0  0
  5  6  2  0  0  0  0
  6  9  1  0  0  0  0
  7  6  1  0  0  0  0
  8  7  2  0  0  0  0
  9 10  1  0  0  0  0
 11  8  1  0  0  0  0
 12 11  1  0  0  0  0
 13  1  1  0  0  0  0
 14 19  2  0  0  0  0
 14 15  1  0  0  0  0
 15 16  2  0  0  0  0
 16 17  1  0  0  0  0
 16 13  1  0  0  0  0
 18 17  2  0  0  0  0
 19 18  1  0  0  0  0
 20 21  1  0  0  0  0
 21 14  1  0  0  0  0
 22 19  1  0  0  0  0
 23 22  1  0  0  0  0
M  END
>  <MODEL>
2

>  <REMARK>
 VINA RESULT:    -6.938      8.290     10.924
 INTER + INTRA:          -9.970
 INTER:                  -9.374
 INTRA:                  -0.596
 UNBOUND:                -0.801
  Name = CHEMBL1288698
  8 active torsions:
  status: ('A' for Active; 'I' for Inactive)
    1  A    between atoms: C_1  and  O_2
    2  A    between atoms: O_2  and  C_3
    3  A    between atoms: C_5  and  C_6
    4  A    between atoms: C_6  and  C_7
    5  A    between atoms: C_7  and  C_9
    6  A    between atoms: C_12  and  O_13
    7  A    between atoms: C_15  and  O_16
    8  A    between atoms: C_19  and  O_20
                            x       y       z     vdW  Elec       q    Type
                         _______ _______ _______ _____ _____    ______ ____

>  <TORSDO>
F 7

>  <SCORE>
-6.938

>  <RMSD_LB>
8.290

>  <RMSD_UB>
10.924

$$$$
CHEMBL1288698
 OpenBabel10162523533D

 23 24  0  0  0  0  0  0  0  0999 V2000
  143.8190  138.7150  152.5940 C   0  0  0  0  0  0  0  0  0  0  0  0
  143.7840  139.8600  152.1300 O   0  0  0  0  0  0  0  0  0  0  0  0
  144.9200  138.3840  153.5480 C   0  0  0  0  0  0  0  0  0  0  0  0
  145.5570  137.1390  153.3740 C   0  0  0  0  0  3  0  0  0  0  0  0
  146.6660  136.7830  154.1470 C   0  0  0  0  0  3  0  0  0  0  0  0
  147.1380  137.6720  155.1000 C   0  0  0  0  0  0  0  0  0  0  0  0
  146.5080  138.8930  155.3110 C   0  0  0  0  0  3  0  0  0  0  0  0
  145.4070  139.2520  154.5300 C   0  0  0  0  0  0  0  0  0  0  0  0
  148.2440  137.3990  155.8500 O   0  0  0  0  0  0  0  0  0  0  0  0
  149.0970  137.4760  155.4710 H   0  0  0  0  0  0  0  0  0  0  0  0
  144.8660  140.4930  154.7150 O   0  0  0  0  0  0  0  0  0  0  0  0
  145.0130  141.1670  154.0810 H   0  0  0  0  0  0  0  0  0  0  0  0
  142.8180  137.6680  152.1320 C   0  0  0  0  0  2  0  0  0  0  0  0
  139.8940  138.1910  154.5580 C   0  0  0  0  0  0  0  0  0  0  0  0
  141.1910  138.0510  154.0540 C   0  0  0  0  0  3  0  0  0  0  0  0
  141.4220  137.8430  152.6840 C   0  0  0  0  0  0  0  0  0  0  0  0
  140.3190  137.7150  151.8240 C   0  0  0  0  0  3  0  0  0  0  0  0
  139.0190  137.8240  152.3170 C   0  0  0  0  0  3  0  0  0  0  0  0
  138.8120  138.0710  153.6760 C   0  0  0  0  0  0  0  0  0  0  0  0
  139.8250  137.3810  156.7940 C   0  0  0  0  0  1  0  0  0  0  0  0
  139.5920  138.4370  155.8720 O   0  0  0  0  0  0  0  0  0  0  0  0
  137.5370  138.1890  154.1540 O   0  0  0  0  0  0  0  0  0  0  0  0
  136.8360  137.7220  153.7420 H   0  0  0  0  0  0  0  0  0  0  0  0
  1  3  1  0  0  0  0
  2  1  2  0  0  0  0
  3  8  1  0  0  0  0
  4  3  2  0  0  0  0
  4  5  1  0  0  0  0
  5  6  2  0  0  0  0
  6  7  1  0  0  0  0
  6  9  1  0  0  0  0
  8 11  1  0  0  0  0
  8  7  2  0  0  0  0
 10  9  1  0  0  0  0
 12 11  1  0  0  0  0
 13  1  1  0  0  0  0
 13 16  1  0  0  0  0
 14 21  1  0  0  0  0
 15 14  1  0  0  0  0
 16 15  2  0  0  0  0
 17 18  2  0  0  0  0
 17 16  1  0  0  0  0
 18 19  1  0  0  0  0
 19 22  1  0  0  0  0
 19 14  2  0  0  0  0
 21 20  1  0  0  0  0
 23 22  1  0  0  0  0
M  END
>  <MODEL>
3

>  <REMARK>
 VINA RESULT:    -6.893      2.068      3.298
 INTER + INTRA:          -9.910
 INTER:                  -9.045
 INTRA:                  -0.865
 UNBOUND:                -0.801
  Name = CHEMBL1288698
  8 active torsions:
  status: ('A' for Active; 'I' for Inactive)
    1  A    between atoms: C_1  and  O_2
    2  A    between atoms: O_2  and  C_3
    3  A    between atoms: C_5  and  C_6
    4  A    between atoms: C_6  and  C_7
    5  A    between atoms: C_7  and  C_9
    6  A    between atoms: C_12  and  O_13
    7  A    between atoms: C_15  and  O_16
    8  A    between atoms: C_19  and  O_20
                            x       y       z     vdW  Elec       q    Type
                         _______ _______ _______ _____ _____    ______ ____

>  <TORSDO>
F 7

>  <SCORE>
-6.893

>  <RMSD_LB>
2.068

>  <RMSD_UB>
3.298

$$$$
CHEMBL1288698
 OpenBabel10162523533D

 23 24  0  0  0  0  0  0  0  0999 V2000
  135.7130  135.8540  152.3930 C   0  0  0  0  0  0  0  0  0  0  0  0
  134.6290  136.3630  152.6990 O   0  0  0  0  0  0  0  0  0  0  0  0
  136.9470  136.6740  152.5880 C   0  0  0  0  0  0  0  0  0  0  0  0
  137.7260  136.9310  151.4410 C   0  0  0  0  0  3  0  0  0  0  0  0
  138.8390  137.7730  151.5010 C   0  0  0  0  0  3  0  0  0  0  0  0
  139.1790  138.3590  152.7100 C   0  0  0  0  0  0  0  0  0  0  0  0
  138.4440  138.0980  153.8610 C   0  0  0  0  0  3  0  0  0  0  0  0
  137.3250  137.2630  153.7980 C   0  0  0  0  0  0  0  0  0  0  0  0
  140.2250  139.2270  152.8180 O   0  0  0  0  0  0  0  0  0  0  0  0
  141.0910  138.9010  152.9660 H   0  0  0  0  0  0  0  0  0  0  0  0
  136.5850  137.0950  154.9340 O   0  0  0  0  0  0  0  0  0  0  0  0
  135.6660  137.2810  154.9260 H   0  0  0  0  0  0  0  0  0  0  0  0
  135.7620  134.4730  151.7610 C   0  0  0  0  0  2  0  0  0  0  0  0
  134.0930  134.6490  148.3120 C   0  0  0  0  0  0  0  0  0  0  0  0
  135.0090  134.8290  149.3540 C   0  0  0  0  0  3  0  0  0  0  0  0
  134.7900  134.2660  150.6210 C   0  0  0  0  0  0  0  0  0  0  0  0
  133.5960  133.5630  150.8520 C   0  0  0  0  0  3  0  0  0  0  0  0
  132.6600  133.3990  149.8310 C   0  0  0  0  0  3  0  0  0  0  0  0
  132.9160  133.9330  148.5660 C   0  0  0  0  0  0  0  0  0  0  0  0
  135.5780  135.1180  146.5130 C   0  0  0  0  0  1  0  0  0  0  0  0
  134.2580  135.1320  147.0400 O   0  0  0  0  0  0  0  0  0  0  0  0
  132.0020  133.7620  147.5640 O   0  0  0  0  0  0  0  0  0  0  0  0
  131.6050  132.9240  147.4300 H   0  0  0  0  0  0  0  0  0  0  0  0
  1  3  1  0  0  0  0
  1  2  2  0  0  0  0
  3  8  1  0  0  0  0
  4  5  1  0  0  0  0
  4  3  2  0  0  0  0
  5  6  2  0  0  0  0
  6  9  1  0  0  0  0
  6  7  1  0  0  0  0
  8  7  2  0  0  0  0
  8 11  1  0  0  0  0
  9 10  1  0  0  0  0
 12 11  1  0  0  0  0
 13  1  1  0  0  0  0
 14 19  2  0  0  0  0
 14 15  1  0  0  0  0
 15 16  2  0  0  0  0
 16 17  1  0  0  0  0
 16 13  1  0  0  0  0
 18 17  2  0  0  0  0
 19 18  1  0  0  0  0
 20 21  1  0  0  0  0
 21 14  1  0  0  0  0
 22 19  1  0  0  0  0
 23 22  1  0  0  0  0
M  END
>  <MODEL>
4

>  <REMARK>
 VINA RESULT:    -6.778      5.861      9.149
 INTER + INTRA:          -9.758
 INTER:                  -8.914
 INTRA:                  -0.844
 UNBOUND:                -0.801
  Name = CHEMBL1288698
  8 active torsions:
  status: ('A' for Active; 'I' for Inactive)
    1  A    between atoms: C_1  and  O_2
    2  A    between atoms: O_2  and  C_3
    3  A    between atoms: C_5  and  C_6
    4  A    between atoms: C_6  and  C_7
    5  A    between atoms: C_7  and  C_9
    6  A    between atoms: C_12  and  O_13
    7  A    between atoms: C_15  and  O_16
    8  A    between atoms: C_19  and  O_20
                            x       y       z     vdW  Elec       q    Type
                         _______ _______ _______ _____ _____    ______ ____

>  <TORSDO>
F 7

>  <SCORE>
-6.778

>  <RMSD_LB>
5.861

>  <RMSD_UB>
9.149

$$$$
CHEMBL1288698
 OpenBabel10162523533D

 23 24  0  0  0  0  0  0  0  0999 V2000
  134.4600  135.2310  154.6010 C   0  0  0  0  0  0  0  0  0  0  0  0
  133.9750  136.2930  154.1950 O   0  0  0  0  0  0  0  0  0  0  0  0
  135.0980  135.2280  155.9520 C   0  0  0  0  0  0  0  0  0  0  0  0
  136.3890  135.7850  156.0440 C   0  0  0  0  0  3  0  0  0  0  0  0
  137.0270  135.9250  157.2800 C   0  0  0  0  0  3  0  0  0  0  0  0
  136.3740  135.5040  158.4280 C   0  0  0  0  0  0  0  0  0  0  0  0
  135.1120  134.9240  158.3590 C   0  0  0  0  0  3  0  0  0  0  0  0
  134.4710  134.7950  157.1250 C   0  0  0  0  0  0  0  0  0  0  0  0
  136.9270  135.6590  159.6650 O   0  0  0  0  0  0  0  0  0  0  0  0
  137.8500  135.7960  159.7520 H   0  0  0  0  0  0  0  0  0  0  0  0
  133.2020  134.2930  157.1100 O   0  0  0  0  0  0  0  0  0  0  0  0
  133.0480  133.4160  156.8160 H   0  0  0  0  0  0  0  0  0  0  0  0
  134.4720  134.0010  153.7080 C   0  0  0  0  0  2  0  0  0  0  0  0
  134.1370  134.5520  149.9270 C   0  0  0  0  0  0  0  0  0  0  0  0
  133.8150  134.3170  151.2680 C   0  0  0  0  0  3  0  0  0  0  0  0
  134.8080  134.2770  152.2590 C   0  0  0  0  0  0  0  0  0  0  0  0
  136.1520  134.4170  151.8770 C   0  0  0  0  0  3  0  0  0  0  0  0
  136.4910  134.6240  150.5400 C   0  0  0  0  0  3  0  0  0  0  0  0
  135.4850  134.7010  149.5750 C   0  0  0  0  0  0  0  0  0  0  0  0
  132.6870  133.4280  148.4130 C   0  0  0  0  0  1  0  0  0  0  0  0
  133.2220  134.6460  148.9120 O   0  0  0  0  0  0  0  0  0  0  0  0
  135.8200  134.9150  148.2670 O   0  0  0  0  0  0  0  0  0  0  0  0
  136.6780  134.6940  147.9600 H   0  0  0  0  0  0  0  0  0  0  0  0
  1  3  1  0  0  0  0
  2  1  2  0  0  0  0
  3  4  2  0  0  0  0
  3  8  1  0  0  0  0
  4  5  1  0  0  0  0
  5  6  2  0  0  0  0
  6  9  1  0  0  0  0
  7  6  1  0  0  0  0
  8  7  2  0  0  0  0
  9 10  1  0  0  0  0
 11  8  1  0  0  0  0
 12 11  1  0  0  0  0
 13  1  1  0  0  0  0
 14 15  1  0  0  0  0
 15 16  2  0  0  0  0
 16 13  1  0  0  0  0
 17 16  1  0  0  0  0
 18 17  2  0  0  0  0
 19 14  2  0  0  0  0
 19 18  1  0  0  0  0
 20 21  1  0  0  0  0
 21 14  1  0  0  0  0
 22 19  1  0  0  0  0
 23 22  1  0  0  0  0
M  END
>  <MODEL>
5

>  <REMARK>
 VINA RESULT:    -6.650      8.759     10.843
 INTER + INTRA:          -9.589
 INTER:                  -8.995
 INTRA:                  -0.594
 UNBOUND:                -0.801
  Name = CHEMBL1288698
  8 active torsions:
  status: ('A' for Active; 'I' for Inactive)
    1  A    between atoms: C_1  and  O_2
    2  A    between atoms: O_2  and  C_3
    3  A    between atoms: C_5  and  C_6
    4  A    between atoms: C_6  and  C_7
    5  A    between atoms: C_7  and  C_9
    6  A    between atoms: C_12  and  O_13
    7  A    between atoms: C_15  and  O_16
    8  A    between atoms: C_19  and  O_20
                            x       y       z     vdW  Elec       q    Type
                         _______ _______ _______ _____ _____    ______ ____

>  <TORSDO>
F 7

>  <SCORE>
-6.650

>  <RMSD_LB>
8.759

>  <RMSD_UB>
10.843

$$$$
CHEMBL1288698
 OpenBabel10162523533D

 23 24  0  0  0  0  0  0  0  0999 V2000
  143.5620  139.1080  151.4360 C   0  0  0  0  0  0  0  0  0  0  0  0
  143.3480  139.4450  150.2660 O   0  0  0  0  0  0  0  0  0  0  0  0
  144.4660  139.9720  152.2550 C   0  0  0  0  0  0  0  0  0  0  0  0
  144.7780  139.5130  153.5510 C   0  0  0  0  0  3  0  0  0  0  0  0
  145.6960  140.1950  154.3540 C   0  0  0  0  0  3  0  0  0  0  0  0
  146.3030  141.3410  153.8630 C   0  0  0  0  0  0  0  0  0  0  0  0
  145.9890  141.8290  152.6000 C   0  0  0  0  0  3  0  0  0  0  0  0
  145.0780  141.1410  151.7940 C   0  0  0  0  0  0  0  0  0  0  0  0
  147.2410  142.0200  154.5830 O   0  0  0  0  0  0  0  0  0  0  0  0
  147.2660  142.9560  154.5540 H   0  0  0  0  0  0  0  0  0  0  0  0
  144.8570  141.6100  150.5300 O   0  0  0  0  0  0  0  0  0  0  0  0
  145.4100  141.3360  149.8250 H   0  0  0  0  0  0  0  0  0  0  0  0
  142.9860  137.8110  151.9790 C   0  0  0  0  0  2  0  0  0  0  0  0
  140.0170  138.1910  154.3770 C   0  0  0  0  0  0  0  0  0  0  0  0
  141.3240  138.1100  153.8850 C   0  0  0  0  0  3  0  0  0  0  0  0
  141.5780  137.9220  152.5170 C   0  0  0  0  0  0  0  0  0  0  0  0
  140.4910  137.7520  151.6450 C   0  0  0  0  0  3  0  0  0  0  0  0
  139.1820  137.8030  152.1240 C   0  0  0  0  0  3  0  0  0  0  0  0
  138.9510  138.0310  153.4820 C   0  0  0  0  0  0  0  0  0  0  0  0
  140.2770  137.5510  156.6530 C   0  0  0  0  0  1  0  0  0  0  0  0
  139.6920  138.4150  155.6890 O   0  0  0  0  0  0  0  0  0  0  0  0
  137.6660  138.0910  153.9470 O   0  0  0  0  0  0  0  0  0  0  0  0
  137.1600  137.3060  154.0290 H   0  0  0  0  0  0  0  0  0  0  0  0
  1 13  1  0  0  0  0
  1  3  1  0  0  0  0
  2  1  2  0  0  0  0
  3  4  1  0  0  0  0
  4  5  2  0  0  0  0
  6  5  1  0  0  0  0
  6  9  1  0  0  0  0
  7  6  2  0  0  0  0
  8  3  2  0  0  0  0
  8  7  1  0  0  0  0
 10  9  1  0  0  0  0
 11  8  1  0  0  0  0
 12 11  1  0  0  0  0
 13 16  1  0  0  0  0
 14 21  1  0  0  0  0
 15 14  1  0  0  0  0
 16 15  2  0  0  0  0
 17 18  2  0  0  0  0
 17 16  1  0  0  0  0
 18 19  1  0  0  0  0
 19 22  1  0  0  0  0
 19 14  2  0  0  0  0
 21 20  1  0  0  0  0
 22 23  1  0  0  0  0
M  END
>  <MODEL>
6

>  <REMARK>
 VINA RESULT:    -6.546      1.382      2.419
 INTER + INTRA:          -9.452
 INTER:                  -8.631
 INTRA:                  -0.821
 UNBOUND:                -0.801
  Name = CHEMBL1288698
  8 active torsions:
  status: ('A' for Active; 'I' for Inactive)
    1  A    between atoms: C_1  and  O_2
    2  A    between atoms: O_2  and  C_3
    3  A    between atoms: C_5  and  C_6
    4  A    between atoms: C_6  and  C_7
    5  A    between atoms: C_7  and  C_9
    6  A    between atoms: C_12  and  O_13
    7  A    between atoms: C_15  and  O_16
    8  A    between atoms: C_19  and  O_20
                            x       y       z     vdW  Elec       q    Type
                         _______ _______ _______ _____ _____    ______ ____

>  <TORSDO>
F 7

>  <SCORE>
-6.546

>  <RMSD_LB>
1.382

>  <RMSD_UB>
2.419

$$$$
CHEMBL1288698
 OpenBabel10162523533D

 23 24  0  0  0  0  0  0  0  0999 V2000
  136.4480  136.2390  154.1870 C   0  0  0  0  0  0  0  0  0  0  0  0
  136.9510  137.0310  153.3830 O   0  0  0  0  0  0  0  0  0  0  0  0
  136.5670  136.5550  155.6430 C   0  0  0  0  0  0  0  0  0  0  0  0
  136.4130  135.4790  156.5400 C   0  0  0  0  0  3  0  0  0  0  0  0
  136.6110  135.6530  157.9130 C   0  0  0  0  0  3  0  0  0  0  0  0
  136.9600  136.9060  158.3920 C   0  0  0  0  0  0  0  0  0  0  0  0
  137.0900  137.9890  157.5290 C   0  0  0  0  0  3  0  0  0  0  0  0
  136.9020  137.8120  156.1560 C   0  0  0  0  0  0  0  0  0  0  0  0
  137.2130  137.1230  159.7140 O   0  0  0  0  0  0  0  0  0  0  0  0
  137.6600  136.4720  160.2190 H   0  0  0  0  0  0  0  0  0  0  0  0
  137.1150  138.8830  155.3360 O   0  0  0  0  0  0  0  0  0  0  0  0
  137.9530  139.3020  155.3210 H   0  0  0  0  0  0  0  0  0  0  0  0
  135.8090  134.9500  153.6980 C   0  0  0  0  0  2  0  0  0  0  0  0
  135.0110  134.6140  149.9620 C   0  0  0  0  0  0  0  0  0  0  0  0
  135.6530  134.4900  151.1980 C   0  0  0  0  0  3  0  0  0  0  0  0
  135.1110  135.0590  152.3610 C   0  0  0  0  0  0  0  0  0  0  0  0
  133.9330  135.8160  152.2580 C   0  0  0  0  0  3  0  0  0  0  0  0
  133.2960  135.9730  151.0280 C   0  0  0  0  0  3  0  0  0  0  0  0
  133.8300  135.3650  149.8900 C   0  0  0  0  0  0  0  0  0  0  0  0
  136.6300  134.6090  148.2190 C   0  0  0  0  0  1  0  0  0  0  0  0
  135.4560  134.0520  148.7940 O   0  0  0  0  0  0  0  0  0  0  0  0
  133.1970  135.5110  148.6860 O   0  0  0  0  0  0  0  0  0  0  0  0
  132.2630  135.4560  148.6380 H   0  0  0  0  0  0  0  0  0  0  0  0
  1  3  1  0  0  0  0
  2  1  2  0  0  0  0
  3  8  2  0  0  0  0
  3  4  1  0  0  0  0
  4  5  2  0  0  0  0
  5  6  1  0  0  0  0
  6  9  1  0  0  0  0
  7  6  2  0  0  0  0
  8  7  1  0  0  0  0
  9 10  1  0  0  0  0
 11  8  1  0  0  0  0
 12 11  1  0  0  0  0
 13  1  1  0  0  0  0
 14 15  1  0  0  0  0
 15 16  2  0  0  0  0
 16 13  1  0  0  0  0
 17 16  1  0  0  0  0
 18 17  2  0  0  0  0
 19 14  2  0  0  0  0
 19 18  1  0  0  0  0
 20 21  1  0  0  0  0
 21 14  1  0  0  0  0
 22 19  1  0  0  0  0
 23 22  1  0  0  0  0
M  END
>  <MODEL>
7

>  <REMARK>
 VINA RESULT:    -6.478      7.631      9.526
 INTER + INTRA:          -9.362
 INTER:                  -8.682
 INTRA:                  -0.681
 UNBOUND:                -0.801
  Name = CHEMBL1288698
  8 active torsions:
  status: ('A' for Active; 'I' for Inactive)
    1  A    between atoms: C_1  and  O_2
    2  A    between atoms: O_2  and  C_3
    3  A    between atoms: C_5  and  C_6
    4  A    between atoms: C_6  and  C_7
    5  A    between atoms: C_7  and  C_9
    6  A    between atoms: C_12  and  O_13
    7  A    between atoms: C_15  and  O_16
    8  A    between atoms: C_19  and  O_20
                            x       y       z     vdW  Elec       q    Type
                         _______ _______ _______ _____ _____    ______ ____

>  <TORSDO>
F 7

>  <SCORE>
-6.478

>  <RMSD_LB>
7.631

>  <RMSD_UB>
9.526

$$$$
CHEMBL1288698
 OpenBabel10162523533D

 23 24  0  0  0  0  0  0  0  0999 V2000
  134.7080  133.0710  146.4130 C   0  0  0  0  0  0  0  0  0  0  0  0
  134.0090  132.9850  145.3970 O   0  0  0  0  0  0  0  0  0  0  0  0
  134.0260  133.3990  147.7010 C   0  0  0  0  0  0  0  0  0  0  0  0
  134.3240  132.5720  148.8030 C   0  0  0  0  0  3  0  0  0  0  0  0
  133.8200  132.8590  150.0750 C   0  0  0  0  0  3  0  0  0  0  0  0
  133.0120  133.9730  150.2470 C   0  0  0  0  0  0  0  0  0  0  0  0
  132.6810  134.7860  149.1690 C   0  0  0  0  0  3  0  0  0  0  0  0
  133.1950  134.5050  147.9000 C   0  0  0  0  0  0  0  0  0  0  0  0
  132.5320  134.3280  151.4720 O   0  0  0  0  0  0  0  0  0  0  0  0
  132.3020  135.2200  151.6440 H   0  0  0  0  0  0  0  0  0  0  0  0
  132.9090  135.3720  146.8850 O   0  0  0  0  0  0  0  0  0  0  0  0
  133.2930  135.2470  146.0390 H   0  0  0  0  0  0  0  0  0  0  0  0
  136.2190  132.9310  146.3190 C   0  0  0  0  0  2  0  0  0  0  0  0
  137.5890  133.9390  142.8820 C   0  0  0  0  0  0  0  0  0  0  0  0
  137.1090  134.0150  144.1940 C   0  0  0  0  0  3  0  0  0  0  0  0
  136.7600  132.8590  144.9090 C   0  0  0  0  0  0  0  0  0  0  0  0
  136.8400  131.6140  144.2640 C   0  0  0  0  0  3  0  0  0  0  0  0
  137.2900  131.5250  142.9470 C   0  0  0  0  0  3  0  0  0  0  0  0
  137.6710  132.6830  142.2670 C   0  0  0  0  0  0  0  0  0  0  0  0
  136.9650  135.8500  141.6090 C   0  0  0  0  0  1  0  0  0  0  0  0
  137.9890  135.0170  142.1360 O   0  0  0  0  0  0  0  0  0  0  0  0
  138.1220  132.5920  140.9790 O   0  0  0  0  0  0  0  0  0  0  0  0
  137.7900  131.9230  140.4120 H   0  0  0  0  0  0  0  0  0  0  0  0
  1  3  1  0  0  0  0
  2  1  2  0  0  0  0
  3  8  2  0  0  0  0
  3  4  1  0  0  0  0
  4  5  2  0  0  0  0
  5  6  1  0  0  0  0
  6  9  1  0  0  0  0
  7  6  2  0  0  0  0
  8  7  1  0  0  0  0
  9 10  1  0  0  0  0
 11  8  1  0  0  0  0
 12 11  1  0  0  0  0
 13  1  1  0  0  0  0
 14 15  1  0  0  0  0
 15 16  2  0  0  0  0
 16 13  1  0  0  0  0
 17 16  1  0  0  0  0
 18 17  2  0  0  0  0
 19 14  2  0  0  0  0
 19 18  1  0  0  0  0
 20 21  1  0  0  0  0
 21 14  1  0  0  0  0
 22 19  1  0  0  0  0
 23 22  1  0  0  0  0
M  END
>  <MODEL>
8

>  <REMARK>
 VINA RESULT:    -6.366     11.725     13.742
 INTER + INTRA:          -9.214
 INTER:                  -8.576
 INTRA:                  -0.638
 UNBOUND:                -0.801
  Name = CHEMBL1288698
  8 active torsions:
  status: ('A' for Active; 'I' for Inactive)
    1  A    between atoms: C_1  and  O_2
    2  A    between atoms: O_2  and  C_3
    3  A    between atoms: C_5  and  C_6
    4  A    between atoms: C_6  and  C_7
    5  A    between atoms: C_7  and  C_9
    6  A    between atoms: C_12  and  O_13
    7  A    between atoms: C_15  and  O_16
    8  A    between atoms: C_19  and  O_20
                            x       y       z     vdW  Elec       q    Type
                         _______ _______ _______ _____ _____    ______ ____

>  <TORSDO>
F 7

>  <SCORE>
-6.366

>  <RMSD_LB>
11.725

>  <RMSD_UB>
13.742

$$$$
CHEMBL1288698
 OpenBabel10162523533D

 23 24  0  0  0  0  0  0  0  0999 V2000
  133.7980  133.7410  147.6600 C   0  0  0  0  0  0  0  0  0  0  0  0
  133.1040  132.7970  147.2630 O   0  0  0  0  0  0  0  0  0  0  0  0
  133.5970  135.0720  147.0120 C   0  0  0  0  0  0  0  0  0  0  0  0
  132.8790  136.0350  147.7510 C   0  0  0  0  0  3  0  0  0  0  0  0
  132.7290  137.3410  147.2770 C   0  0  0  0  0  3  0  0  0  0  0  0
  133.2950  137.6870  146.0600 C   0  0  0  0  0  0  0  0  0  0  0  0
  133.9830  136.7470  145.3000 C   0  0  0  0  0  3  0  0  0  0  0  0
  134.1410  135.4450  145.7800 C   0  0  0  0  0  0  0  0  0  0  0  0
  133.2230  138.9580  145.5710 O   0  0  0  0  0  0  0  0  0  0  0  0
  132.9180  139.6540  146.1190 H   0  0  0  0  0  0  0  0  0  0  0  0
  134.8900  134.5750  145.0400 O   0  0  0  0  0  0  0  0  0  0  0  0
  134.5220  133.7570  144.7640 H   0  0  0  0  0  0  0  0  0  0  0  0
  134.8710  133.5160  148.7120 C   0  0  0  0  0  2  0  0  0  0  0  0
  135.4920  135.8850  151.6640 C   0  0  0  0  0  0  0  0  0  0  0  0
  135.6700  135.1750  150.4710 C   0  0  0  0  0  3  0  0  0  0  0  0
  134.6800  134.3050  149.9880 C   0  0  0  0  0  0  0  0  0  0  0  0
  133.5210  134.1050  150.7550 C   0  0  0  0  0  3  0  0  0  0  0  0
  133.3420  134.7830  151.9600 C   0  0  0  0  0  3  0  0  0  0  0  0
  134.3200  135.6760  152.4030 C   0  0  0  0  0  0  0  0  0  0  0  0
  137.4890  137.1380  151.3470 C   0  0  0  0  0  1  0  0  0  0  0  0
  136.3920  136.7810  152.1770 O   0  0  0  0  0  0  0  0  0  0  0  0
  134.1370  136.3480  153.5800 O   0  0  0  0  0  0  0  0  0  0  0  0
  133.2760  136.6150  153.8380 H   0  0  0  0  0  0  0  0  0  0  0  0
  1 13  1  0  0  0  0
  2  1  2  0  0  0  0
  3  1  1  0  0  0  0
  3  4  1  0  0  0  0
  5  4  2  0  0  0  0
  6  5  1  0  0  0  0
  7  8  1  0  0  0  0
  7  6  2  0  0  0  0
  8  3  2  0  0  0  0
  9  6  1  0  0  0  0
  9 10  1  0  0  0  0
 11  8  1  0  0  0  0
 12 11  1  0  0  0  0
 13 16  1  0  0  0  0
 14 21  1  0  0  0  0
 14 19  1  0  0  0  0
 15 14  2  0  0  0  0
 16 15  1  0  0  0  0
 16 17  2  0  0  0  0
 17 18  1  0  0  0  0
 18 19  2  0  0  0  0
 19 22  1  0  0  0  0
 20 21  1  0  0  0  0
 22 23  1  0  0  0  0
M  END
>  <MODEL>
9

>  <REMARK>
 VINA RESULT:    -6.329      7.629     11.397
 INTER + INTRA:          -9.165
 INTER:                  -8.364
 INTRA:                  -0.801
 UNBOUND:                -0.801
  Name = CHEMBL1288698
  8 active torsions:
  status: ('A' for Active; 'I' for Inactive)
    1  A    between atoms: C_1  and  O_2
    2  A    between atoms: O_2  and  C_3
    3  A    between atoms: C_5  and  C_6
    4  A    between atoms: C_6  and  C_7
    5  A    between atoms: C_7  and  C_9
    6  A    between atoms: C_12  and  O_13
    7  A    between atoms: C_15  and  O_16
    8  A    between atoms: C_19  and  O_20
                            x       y       z     vdW  Elec       q    Type
                         _______ _______ _______ _____ _____    ______ ____

>  <TORSDO>
F 7

>  <SCORE>
-6.329

>  <RMSD_LB>
7.629

>  <RMSD_UB>
11.397

$$$$
