CHEMBL1290123
 OpenBabel10162523533D

 25 26  0  0  0  0  0  0  0  0999 V2000
  137.7380  138.0520  155.3210 C   0  0  0  0  0  0  0  0  0  0  0  0
  136.9680  138.9290  155.7260 O   0  0  0  0  0  0  0  0  0  0  0  0
  138.3180  138.2060  153.9520 C   0  0  0  0  0  0  0  0  0  0  0  0
  137.7410  137.4260  152.9250 C   0  0  0  0  0  3  0  0  0  0  0  0
  138.1480  137.5430  151.5850 C   0  0  0  0  0  0  0  0  0  0  0  0
  139.1640  138.4590  151.2700 C   0  0  0  0  0  0  0  0  0  0  0  0
  139.7470  139.2220  152.2920 C   0  0  0  0  0  3  0  0  0  0  0  0
  139.3240  139.1090  153.6160 C   0  0  0  0  0  0  0  0  0  0  0  0
  137.6010  136.8100  150.5680 O   0  0  0  0  0  0  0  0  0  0  0  0
  136.3580  136.1540  150.7870 C   0  0  0  0  0  1  0  0  0  0  0  0
  139.7090  138.7550  150.0470 O   0  0  0  0  0  0  0  0  0  0  0  0
  140.2980  140.0290  149.8420 C   0  0  0  0  0  1  0  0  0  0  0  0
  139.8860  139.9350  154.5440 O   0  0  0  0  0  0  0  0  0  0  0  0
  139.7540  139.7720  155.4570 H   0  0  0  0  0  0  0  0  0  0  0  0
  138.0140  136.8250  156.1710 C   0  0  0  0  0  2  0  0  0  0  0  0
  134.7930  134.8230  155.7270 C   0  0  0  0  0  0  0  0  0  0  0  0
  135.9630  135.5400  155.4550 C   0  0  0  0  0  3  0  0  0  0  0  0
  136.7720  136.0310  156.4940 C   0  0  0  0  0  0  0  0  0  0  0  0
  136.3910  135.8030  157.8210 C   0  0  0  0  0  3  0  0  0  0  0  0
  135.2210  135.1020  158.1070 C   0  0  0  0  0  3  0  0  0  0  0  0
  134.4300  134.6140  157.0650 C   0  0  0  0  0  0  0  0  0  0  0  0
  134.5390  133.9620  153.5230 C   0  0  0  0  0  1  0  0  0  0  0  0
  133.9580  134.3010  154.7760 O   0  0  0  0  0  0  0  0  0  0  0  0
  133.2820  133.9260  157.3500 O   0  0  0  0  0  0  0  0  0  0  0  0
  132.6200  134.3200  157.8830 H   0  0  0  0  0  0  0  0  0  0  0  0
  1  2  2  0  0  0  0
  1 15  1  0  0  0  0
  3  1  1  0  0  0  0
  4  3  2  0  0  0  0
  5  4  1  0  0  0  0
  6  5  2  0  0  0  0
  6  7  1  0  0  0  0
  7  8  2  0  0  0  0
  8  3  1  0  0  0  0
  8 13  1  0  0  0  0
  9 10  1  0  0  0  0
  9  5  1  0  0  0  0
 11  6  1  0  0  0  0
 12 11  1  0  0  0  0
 13 14  1  0  0  0  0
 15 18  1  0  0  0  0
 16 21  1  0  0  0  0
 17 16  2  0  0  0  0
 17 18  1  0  0  0  0
 18 19  2  0  0  0  0
 19 20  1  0  0  0  0
 21 24  1  0  0  0  0
 21 20  2  0  0  0  0
 22 23  1  0  0  0  0
 23 16  1  0  0  0  0
 24 25  1  0  0  0  0
M  END
>  <MODEL>
1

>  <REMARK>
 VINA RESULT:    -7.519      0.000      0.000
 INTER + INTRA:         -11.551
 INTER:                 -10.616
 INTRA:                  -0.935
 UNBOUND:                -0.956
  Name = CHEMBL1290123
  11 active torsions:
  status: ('A' for Active; 'I' for Inactive)
    1  A    between atoms: C_1  and  O_2
    2  A    between atoms: O_2  and  C_3
    3  A    between atoms: C_5  and  C_6
    4  A    between atoms: C_6  and  C_7
    5  A    between atoms: C_7  and  C_9
    6  A    between atoms: C_11  and  O_12
    7  A    between atoms: O_12  and  C_13
    8  A    between atoms: C_14  and  O_15
    9  A    between atoms: O_15  and  C_16
   10  A    between atoms: C_18  and  O_19
   11  A    between atoms: C_22  and  O_23
                            x       y       z     vdW  Elec       q    Type
                         _______ _______ _______ _____ _____    ______ ____

>  <TORSDO>
F 8

>  <SCORE>
-7.519

>  <RMSD_LB>
0.000

>  <RMSD_UB>
0.000

$$$$
CHEMBL1290123
 OpenBabel10162523533D

 25 26  0  0  0  0  0  0  0  0999 V2000
  137.8850  138.0870  155.6850 C   0  0  0  0  0  0  0  0  0  0  0  0
  136.9420  138.8840  155.7090 O   0  0  0  0  0  0  0  0  0  0  0  0
  138.8440  138.1700  154.5410 C   0  0  0  0  0  0  0  0  0  0  0  0
  140.1800  138.5040  154.8560 C   0  0  0  0  0  3  0  0  0  0  0  0
  141.1880  138.5360  153.8770 C   0  0  0  0  0  0  0  0  0  0  0  0
  140.8450  138.2320  152.5510 C   0  0  0  0  0  0  0  0  0  0  0  0
  139.5160  137.9150  152.2360 C   0  0  0  0  0  3  0  0  0  0  0  0
  138.5270  137.8720  153.2190 C   0  0  0  0  0  0  0  0  0  0  0  0
  142.4920  138.8440  154.1530 O   0  0  0  0  0  0  0  0  0  0  0  0
  142.7870  139.5950  155.3240 C   0  0  0  0  0  1  0  0  0  0  0  0
  141.6500  138.1830  151.4410 O   0  0  0  0  0  0  0  0  0  0  0  0
  142.5520  137.0990  151.2880 C   0  0  0  0  0  1  0  0  0  0  0  0
  137.2720  137.4860  152.8520 O   0  0  0  0  0  0  0  0  0  0  0  0
  137.1510  136.7180  152.3290 H   0  0  0  0  0  0  0  0  0  0  0  0
  138.0060  137.0150  156.7530 C   0  0  0  0  0  2  0  0  0  0  0  0
  134.8550  135.0460  155.8780 C   0  0  0  0  0  0  0  0  0  0  0  0
  136.0280  135.7980  155.7650 C   0  0  0  0  0  3  0  0  0  0  0  0
  136.7590  136.1780  156.9030 C   0  0  0  0  0  0  0  0  0  0  0  0
  136.2970  135.8000  158.1690 C   0  0  0  0  0  3  0  0  0  0  0  0
  135.1220  135.0610  158.2980 C   0  0  0  0  0  3  0  0  0  0  0  0
  134.4090  134.6860  157.1580 C   0  0  0  0  0  0  0  0  0  0  0  0
  133.9420  135.5290  153.7340 C   0  0  0  0  0  1  0  0  0  0  0  0
  134.0910  134.6250  154.8220 O   0  0  0  0  0  0  0  0  0  0  0  0
  133.2560  133.9590  157.2890 O   0  0  0  0  0  0  0  0  0  0  0  0
  132.4480  134.3930  157.4790 H   0  0  0  0  0  0  0  0  0  0  0  0
  1  2  2  0  0  0  0
  1 15  1  0  0  0  0
  3  4  1  0  0  0  0
  3  1  1  0  0  0  0
  5  9  1  0  0  0  0
  5  4  2  0  0  0  0
  6  5  1  0  0  0  0
  7  6  2  0  0  0  0
  7  8  1  0  0  0  0
  8  3  2  0  0  0  0
  9 10  1  0  0  0  0
 11  6  1  0  0  0  0
 12 11  1  0  0  0  0
 13  8  1  0  0  0  0
 14 13  1  0  0  0  0
 15 18  1  0  0  0  0
 16 21  1  0  0  0  0
 17 16  2  0  0  0  0
 17 18  1  0  0  0  0
 18 19  2  0  0  0  0
 19 20  1  0  0  0  0
 21 24  1  0  0  0  0
 21 20  2  0  0  0  0
 22 23  1  0  0  0  0
 23 16  1  0  0  0  0
 24 25  1  0  0  0  0
M  END
>  <MODEL>
2

>  <REMARK>
 VINA RESULT:    -7.200      1.668      2.888
 INTER + INTRA:         -11.102
 INTER:                 -10.355
 INTRA:                  -0.747
 UNBOUND:                -0.956
  Name = CHEMBL1290123
  11 active torsions:
  status: ('A' for Active; 'I' for Inactive)
    1  A    between atoms: C_1  and  O_2
    2  A    between atoms: O_2  and  C_3
    3  A    between atoms: C_5  and  C_6
    4  A    between atoms: C_6  and  C_7
    5  A    between atoms: C_7  and  C_9
    6  A    between atoms: C_11  and  O_12
    7  A    between atoms: O_12  and  C_13
    8  A    between atoms: C_14  and  O_15
    9  A    between atoms: O_15  and  C_16
   10  A    between atoms: C_18  and  O_19
   11  A    between atoms: C_22  and  O_23
                            x       y       z     vdW  Elec       q    Type
                         _______ _______ _______ _____ _____    ______ ____

>  <TORSDO>
F 8

>  <SCORE>
-7.200

>  <RMSD_LB>
1.668

>  <RMSD_UB>
2.888

$$$$
CHEMBL1290123
 OpenBabel10162523533D

 25 26  0  0  0  0  0  0  0  0999 V2000
  135.3960  135.7080  153.8830 C   0  0  0  0  0  0  0  0  0  0  0  0
  134.3570  136.2920  153.5580 O   0  0  0  0  0  0  0  0  0  0  0  0
  136.2000  136.2800  155.0060 C   0  0  0  0  0  0  0  0  0  0  0  0
  137.1590  137.2590  154.6650 C   0  0  0  0  0  3  0  0  0  0  0  0
  137.9200  137.9250  155.6410 C   0  0  0  0  0  0  0  0  0  0  0  0
  137.7160  137.5960  156.9910 C   0  0  0  0  0  0  0  0  0  0  0  0
  136.7740  136.6140  157.3270 C   0  0  0  0  0  3  0  0  0  0  0  0
  136.0140  135.9700  156.3510 C   0  0  0  0  0  0  0  0  0  0  0  0
  138.8480  138.8850  155.3440 O   0  0  0  0  0  0  0  0  0  0  0  0
  139.1760  139.1230  153.9810 C   0  0  0  0  0  1  0  0  0  0  0  0
  138.3210  138.1170  158.1060 O   0  0  0  0  0  0  0  0  0  0  0  0
  137.7100  137.9350  159.3730 C   0  0  0  0  0  1  0  0  0  0  0  0
  135.0660  135.0780  156.7570 O   0  0  0  0  0  0  0  0  0  0  0  0
  135.3230  134.2730  157.1620 H   0  0  0  0  0  0  0  0  0  0  0  0
  135.8640  134.4920  153.1040 C   0  0  0  0  0  2  0  0  0  0  0  0
  134.9110  134.0440  149.4340 C   0  0  0  0  0  0  0  0  0  0  0  0
  134.9540  133.9020  150.8250 C   0  0  0  0  0  3  0  0  0  0  0  0
  135.8180  134.6870  151.6080 C   0  0  0  0  0  0  0  0  0  0  0  0
  136.6520  135.6180  150.9800 C   0  0  0  0  0  3  0  0  0  0  0  0
  136.6290  135.7620  149.5940 C   0  0  0  0  0  3  0  0  0  0  0  0
  135.7610  134.9800  148.8290 C   0  0  0  0  0  0  0  0  0  0  0  0
  132.6910  133.5320  148.7450 C   0  0  0  0  0  1  0  0  0  0  0  0
  134.0920  133.3300  148.6010 O   0  0  0  0  0  0  0  0  0  0  0  0
  135.7410  135.1240  147.4670 O   0  0  0  0  0  0  0  0  0  0  0  0
  136.1400  134.4750  146.9220 H   0  0  0  0  0  0  0  0  0  0  0  0
  1  3  1  0  0  0  0
  2  1  2  0  0  0  0
  3  8  1  0  0  0  0
  4  3  2  0  0  0  0
  4  5  1  0  0  0  0
  5  6  2  0  0  0  0
  6  7  1  0  0  0  0
  6 11  1  0  0  0  0
  8 13  1  0  0  0  0
  8  7  2  0  0  0  0
  9  5  1  0  0  0  0
 10  9  1  0  0  0  0
 11 12  1  0  0  0  0
 13 14  1  0  0  0  0
 15  1  1  0  0  0  0
 16 17  1  0  0  0  0
 17 18  2  0  0  0  0
 18 15  1  0  0  0  0
 19 18  1  0  0  0  0
 20 19  2  0  0  0  0
 21 16  2  0  0  0  0
 21 20  1  0  0  0  0
 23 22  1  0  0  0  0
 23 16  1  0  0  0  0
 24 21  1  0  0  0  0
 25 24  1  0  0  0  0
M  END
>  <MODEL>
3

>  <REMARK>
 VINA RESULT:    -6.742      2.428      6.311
 INTER + INTRA:         -10.457
 INTER:                  -9.662
 INTRA:                  -0.795
 UNBOUND:                -0.956
  Name = CHEMBL1290123
  11 active torsions:
  status: ('A' for Active; 'I' for Inactive)
    1  A    between atoms: C_1  and  O_2
    2  A    between atoms: O_2  and  C_3
    3  A    between atoms: C_5  and  C_6
    4  A    between atoms: C_6  and  C_7
    5  A    between atoms: C_7  and  C_9
    6  A    between atoms: C_11  and  O_12
    7  A    between atoms: O_12  and  C_13
    8  A    between atoms: C_14  and  O_15
    9  A    between atoms: O_15  and  C_16
   10  A    between atoms: C_18  and  O_19
   11  A    between atoms: C_22  and  O_23
                            x       y       z     vdW  Elec       q    Type
                         _______ _______ _______ _____ _____    ______ ____

>  <TORSDO>
F 8

>  <SCORE>
-6.742

>  <RMSD_LB>
2.428

>  <RMSD_UB>
6.311

$$$$
CHEMBL1290123
 OpenBabel10162523533D

 25 26  0  0  0  0  0  0  0  0999 V2000
  133.4890  134.3740  150.0700 C   0  0  0  0  0  0  0  0  0  0  0  0
  132.4080  134.0760  150.5890 O   0  0  0  0  0  0  0  0  0  0  0  0
  133.4640  135.2000  148.8240 C   0  0  0  0  0  0  0  0  0  0  0  0
  133.9920  134.6050  147.6570 C   0  0  0  0  0  3  0  0  0  0  0  0
  133.9520  135.2530  146.4100 C   0  0  0  0  0  0  0  0  0  0  0  0
  133.3750  136.5310  146.3350 C   0  0  0  0  0  0  0  0  0  0  0  0
  132.8650  137.1270  147.4980 C   0  0  0  0  0  3  0  0  0  0  0  0
  132.8960  136.4680  148.7270 C   0  0  0  0  0  0  0  0  0  0  0  0
  134.4440  134.6980  145.2610 O   0  0  0  0  0  0  0  0  0  0  0  0
  134.6170  133.2880  145.1990 C   0  0  0  0  0  1  0  0  0  0  0  0
  133.2100  137.3400  145.2410 O   0  0  0  0  0  0  0  0  0  0  0  0
  133.2820  138.7470  145.4040 C   0  0  0  0  0  1  0  0  0  0  0  0
  132.3170  137.0790  149.8000 O   0  0  0  0  0  0  0  0  0  0  0  0
  132.5770  137.9460  150.0420 H   0  0  0  0  0  0  0  0  0  0  0  0
  134.7870  133.8450  150.6510 C   0  0  0  0  0  2  0  0  0  0  0  0
  137.0240  136.6910  151.8670 C   0  0  0  0  0  0  0  0  0  0  0  0
  136.3540  135.7860  151.0370 C   0  0  0  0  0  3  0  0  0  0  0  0
  135.4750  134.8270  151.5680 C   0  0  0  0  0  0  0  0  0  0  0  0
  135.2770  134.7750  152.9530 C   0  0  0  0  0  3  0  0  0  0  0  0
  135.9480  135.6620  153.7930 C   0  0  0  0  0  3  0  0  0  0  0  0
  136.8140  136.6140  153.2500 C   0  0  0  0  0  0  0  0  0  0  0  0
  137.7120  138.1240  150.0950 C   0  0  0  0  0  1  0  0  0  0  0  0
  137.8840  137.6620  151.4300 O   0  0  0  0  0  0  0  0  0  0  0  0
  137.4700  137.4840  154.0800 O   0  0  0  0  0  0  0  0  0  0  0  0
  138.3620  137.3220  154.3160 H   0  0  0  0  0  0  0  0  0  0  0  0
  1  2  2  0  0  0  0
  1 15  1  0  0  0  0
  3  1  1  0  0  0  0
  4  3  2  0  0  0  0
  5  4  1  0  0  0  0
  6  5  2  0  0  0  0
  6  7  1  0  0  0  0
  7  8  2  0  0  0  0
  8  3  1  0  0  0  0
  8 13  1  0  0  0  0
  9  5  1  0  0  0  0
 10  9  1  0  0  0  0
 11 12  1  0  0  0  0
 11  6  1  0  0  0  0
 13 14  1  0  0  0  0
 15 18  1  0  0  0  0
 16 21  1  0  0  0  0
 17 18  1  0  0  0  0
 17 16  2  0  0  0  0
 18 19  2  0  0  0  0
 19 20  1  0  0  0  0
 21 20  2  0  0  0  0
 21 24  1  0  0  0  0
 22 23  1  0  0  0  0
 23 16  1  0  0  0  0
 24 25  1  0  0  0  0
M  END
>  <MODEL>
4

>  <REMARK>
 VINA RESULT:    -6.665      4.133      6.964
 INTER + INTRA:         -10.348
 INTER:                  -9.294
 INTRA:                  -1.054
 UNBOUND:                -0.956
  Name = CHEMBL1290123
  11 active torsions:
  status: ('A' for Active; 'I' for Inactive)
    1  A    between atoms: C_1  and  O_2
    2  A    between atoms: O_2  and  C_3
    3  A    between atoms: C_5  and  C_6
    4  A    between atoms: C_6  and  C_7
    5  A    between atoms: C_7  and  C_9
    6  A    between atoms: C_11  and  O_12
    7  A    between atoms: O_12  and  C_13
    8  A    between atoms: C_14  and  O_15
    9  A    between atoms: O_15  and  C_16
   10  A    between atoms: C_18  and  O_19
   11  A    between atoms: C_22  and  O_23
                            x       y       z     vdW  Elec       q    Type
                         _______ _______ _______ _____ _____    ______ ____

>  <TORSDO>
F 8

>  <SCORE>
-6.665

>  <RMSD_LB>
4.133

>  <RMSD_UB>
6.964

$$$$
CHEMBL1290123
 OpenBabel10162523533D

 25 26  0  0  0  0  0  0  0  0999 V2000
  135.3750  134.5660  152.3930 C   0  0  0  0  0  0  0  0  0  0  0  0
  136.2760  133.9540  151.8120 O   0  0  0  0  0  0  0  0  0  0  0  0
  135.7310  135.3320  153.6270 C   0  0  0  0  0  0  0  0  0  0  0  0
  136.5770  136.4500  153.4580 C   0  0  0  0  0  3  0  0  0  0  0  0
  136.9180  137.2930  154.5310 C   0  0  0  0  0  0  0  0  0  0  0  0
  136.4020  137.0010  155.8030 C   0  0  0  0  0  0  0  0  0  0  0  0
  135.5740  135.8810  155.9730 C   0  0  0  0  0  3  0  0  0  0  0  0
  135.2310  135.0620  154.8980 C   0  0  0  0  0  0  0  0  0  0  0  0
  137.7240  138.3890  154.3970 O   0  0  0  0  0  0  0  0  0  0  0  0
  139.1280  138.1980  154.2770 C   0  0  0  0  0  1  0  0  0  0  0  0
  136.5790  137.6790  156.9820 O   0  0  0  0  0  0  0  0  0  0  0  0
  137.7730  137.4790  157.7220 C   0  0  0  0  0  1  0  0  0  0  0  0
  134.3640  134.0340  155.1240 O   0  0  0  0  0  0  0  0  0  0  0  0
  133.5970  133.9420  154.5940 H   0  0  0  0  0  0  0  0  0  0  0  0
  133.9430  134.4710  151.8980 C   0  0  0  0  0  2  0  0  0  0  0  0
  133.3980  134.8370  148.1370 C   0  0  0  0  0  0  0  0  0  0  0  0
  133.5250  135.1320  149.4980 C   0  0  0  0  0  3  0  0  0  0  0  0
  133.8400  134.1300  150.4320 C   0  0  0  0  0  0  0  0  0  0  0  0
  134.0210  132.8150  149.9860 C   0  0  0  0  0  3  0  0  0  0  0  0
  133.8840  132.5050  148.6340 C   0  0  0  0  0  3  0  0  0  0  0  0
  133.5770  133.5120  147.7180 C   0  0  0  0  0  0  0  0  0  0  0  0
  132.4500  136.9480  147.5760 C   0  0  0  0  0  1  0  0  0  0  0  0
  133.1060  135.7540  147.1630 O   0  0  0  0  0  0  0  0  0  0  0  0
  133.4440  133.2030  146.3900 O   0  0  0  0  0  0  0  0  0  0  0  0
  132.6000  132.9970  146.0400 H   0  0  0  0  0  0  0  0  0  0  0  0
  1  3  1  0  0  0  0
  2  1  2  0  0  0  0
  3  8  1  0  0  0  0
  4  3  2  0  0  0  0
  4  5  1  0  0  0  0
  5  6  2  0  0  0  0
  6  7  1  0  0  0  0
  6 11  1  0  0  0  0
  8 13  1  0  0  0  0
  8  7  2  0  0  0  0
  9  5  1  0  0  0  0
 10  9  1  0  0  0  0
 11 12  1  0  0  0  0
 14 13  1  0  0  0  0
 15  1  1  0  0  0  0
 16 17  1  0  0  0  0
 17 18  2  0  0  0  0
 18 15  1  0  0  0  0
 19 18  1  0  0  0  0
 20 19  2  0  0  0  0
 21 16  2  0  0  0  0
 21 20  1  0  0  0  0
 23 22  1  0  0  0  0
 23 16  1  0  0  0  0
 24 21  1  0  0  0  0
 25 24  1  0  0  0  0
M  END
>  <MODEL>
5

>  <REMARK>
 VINA RESULT:    -6.642      3.266      7.000
 INTER + INTRA:         -10.316
 INTER:                  -9.954
 INTRA:                  -0.362
 UNBOUND:                -0.956
  Name = CHEMBL1290123
  11 active torsions:
  status: ('A' for Active; 'I' for Inactive)
    1  A    between atoms: C_1  and  O_2
    2  A    between atoms: O_2  and  C_3
    3  A    between atoms: C_5  and  C_6
    4  A    between atoms: C_6  and  C_7
    5  A    between atoms: C_7  and  C_9
    6  A    between atoms: C_11  and  O_12
    7  A    between atoms: O_12  and  C_13
    8  A    between atoms: C_14  and  O_15
    9  A    between atoms: O_15  and  C_16
   10  A    between atoms: C_18  and  O_19
   11  A    between atoms: C_22  and  O_23
                            x       y       z     vdW  Elec       q    Type
                         _______ _______ _______ _____ _____    ______ ____

>  <TORSDO>
F 8

>  <SCORE>
-6.642

>  <RMSD_LB>
3.266

>  <RMSD_UB>
7.000

$$$$
CHEMBL1290123
 OpenBabel10162523533D

 25 26  0  0  0  0  0  0  0  0999 V2000
  133.2410  134.7320  150.4810 C   0  0  0  0  0  0  0  0  0  0  0  0
  132.1640  134.7830  151.0830 O   0  0  0  0  0  0  0  0  0  0  0  0
  133.3130  135.3500  149.1210 C   0  0  0  0  0  0  0  0  0  0  0  0
  133.8790  134.5620  148.0950 C   0  0  0  0  0  3  0  0  0  0  0  0
  133.9300  135.0040  146.7610 C   0  0  0  0  0  0  0  0  0  0  0  0
  133.4060  136.2700  146.4530 C   0  0  0  0  0  0  0  0  0  0  0  0
  132.8580  137.0580  147.4760 C   0  0  0  0  0  3  0  0  0  0  0  0
  132.7990  136.6020  148.7930 C   0  0  0  0  0  0  0  0  0  0  0  0
  134.4610  134.2600  145.7440 O   0  0  0  0  0  0  0  0  0  0  0  0
  135.6920  133.5810  145.9600 C   0  0  0  0  0  1  0  0  0  0  0  0
  133.3300  136.8990  145.2380 O   0  0  0  0  0  0  0  0  0  0  0  0
  133.3990  138.3150  145.1860 C   0  0  0  0  0  1  0  0  0  0  0  0
  132.1870  137.3920  149.7200 O   0  0  0  0  0  0  0  0  0  0  0  0
  132.4640  137.3650  150.6150 H   0  0  0  0  0  0  0  0  0  0  0  0
  134.4210  133.9930  151.0860 C   0  0  0  0  0  2  0  0  0  0  0  0
  136.0900  135.5450  154.1480 C   0  0  0  0  0  0  0  0  0  0  0  0
  135.3020  134.7250  153.3350 C   0  0  0  0  0  3  0  0  0  0  0  0
  135.3030  134.8730  151.9370 C   0  0  0  0  0  0  0  0  0  0  0  0
  136.1020  135.8650  151.3570 C   0  0  0  0  0  3  0  0  0  0  0  0
  136.8820  136.6980  152.1560 C   0  0  0  0  0  3  0  0  0  0  0  0
  136.8760  136.5350  153.5430 C   0  0  0  0  0  0  0  0  0  0  0  0
  134.9790  135.0380  156.1910 C   0  0  0  0  0  1  0  0  0  0  0  0
  136.1570  135.4590  155.5130 O   0  0  0  0  0  0  0  0  0  0  0  0
  137.6450  137.3560  154.3240 O   0  0  0  0  0  0  0  0  0  0  0  0
  137.2470  137.8590  155.0070 H   0  0  0  0  0  0  0  0  0  0  0  0
  1  2  2  0  0  0  0
  1 15  1  0  0  0  0
  3  1  1  0  0  0  0
  4  3  2  0  0  0  0
  5  4  1  0  0  0  0
  6  5  2  0  0  0  0
  6  7  1  0  0  0  0
  7  8  2  0  0  0  0
  8  3  1  0  0  0  0
  8 13  1  0  0  0  0
  9 10  1  0  0  0  0
  9  5  1  0  0  0  0
 11  6  1  0  0  0  0
 12 11  1  0  0  0  0
 13 14  1  0  0  0  0
 15 18  1  0  0  0  0
 16 23  1  0  0  0  0
 17 16  2  0  0  0  0
 18 17  1  0  0  0  0
 19 18  2  0  0  0  0
 19 20  1  0  0  0  0
 20 21  2  0  0  0  0
 21 16  1  0  0  0  0
 21 24  1  0  0  0  0
 23 22  1  0  0  0  0
 24 25  1  0  0  0  0
M  END
>  <MODEL>
6

>  <REMARK>
 VINA RESULT:    -6.628      4.010      6.644
 INTER + INTRA:         -10.297
 INTER:                  -9.295
 INTRA:                  -1.002
 UNBOUND:                -0.956
  Name = CHEMBL1290123
  11 active torsions:
  status: ('A' for Active; 'I' for Inactive)
    1  A    between atoms: C_1  and  O_2
    2  A    between atoms: O_2  and  C_3
    3  A    between atoms: C_5  and  C_6
    4  A    between atoms: C_6  and  C_7
    5  A    between atoms: C_7  and  C_9
    6  A    between atoms: C_11  and  O_12
    7  A    between atoms: O_12  and  C_13
    8  A    between atoms: C_14  and  O_15
    9  A    between atoms: O_15  and  C_16
   10  A    between atoms: C_18  and  O_19
   11  A    between atoms: C_22  and  O_23
                            x       y       z     vdW  Elec       q    Type
                         _______ _______ _______ _____ _____    ______ ____

>  <TORSDO>
F 8

>  <SCORE>
-6.628

>  <RMSD_LB>
4.010

>  <RMSD_UB>
6.644

$$$$
CHEMBL1290123
 OpenBabel10162523533D

 25 26  0  0  0  0  0  0  0  0999 V2000
  143.3150  139.3590  151.1890 C   0  0  0  0  0  0  0  0  0  0  0  0
  142.8920  139.9620  150.1980 O   0  0  0  0  0  0  0  0  0  0  0  0
  144.3500  140.0330  152.0310 C   0  0  0  0  0  0  0  0  0  0  0  0
  144.6450  139.4340  153.2750 C   0  0  0  0  0  3  0  0  0  0  0  0
  145.6550  139.9310  154.1180 C   0  0  0  0  0  0  0  0  0  0  0  0
  146.3800  141.0600  153.7040 C   0  0  0  0  0  0  0  0  0  0  0  0
  146.0760  141.6630  152.4750 C   0  0  0  0  0  3  0  0  0  0  0  0
  145.0820  141.1520  151.6400 C   0  0  0  0  0  0  0  0  0  0  0  0
  145.9710  139.3670  155.3230 O   0  0  0  0  0  0  0  0  0  0  0  0
  147.0360  138.4260  155.3820 C   0  0  0  0  0  1  0  0  0  0  0  0
  147.4070  141.7060  154.3410 O   0  0  0  0  0  0  0  0  0  0  0  0
  148.7140  141.6390  153.7920 C   0  0  0  0  0  1  0  0  0  0  0  0
  144.8910  141.7470  150.4280 O   0  0  0  0  0  0  0  0  0  0  0  0
  145.5520  142.3060  150.0710 H   0  0  0  0  0  0  0  0  0  0  0  0
  142.8420  137.9470  151.4840 C   0  0  0  0  0  2  0  0  0  0  0  0
  139.0450  137.5900  151.6750 C   0  0  0  0  0  0  0  0  0  0  0  0
  140.3560  137.6210  151.1890 C   0  0  0  0  0  3  0  0  0  0  0  0
  141.4400  137.8920  152.0420 C   0  0  0  0  0  0  0  0  0  0  0  0
  141.1960  138.1420  153.3970 C   0  0  0  0  0  3  0  0  0  0  0  0
  139.8940  138.1270  153.8930 C   0  0  0  0  0  3  0  0  0  0  0  0
  138.8270  137.8500  153.0350 C   0  0  0  0  0  0  0  0  0  0  0  0
  137.6280  138.2450  149.8790 C   0  0  0  0  0  1  0  0  0  0  0  0
  137.9370  137.3220  150.9170 O   0  0  0  0  0  0  0  0  0  0  0  0
  137.5490  137.8360  153.5270 O   0  0  0  0  0  0  0  0  0  0  0  0
  137.1570  137.0260  153.7860 H   0  0  0  0  0  0  0  0  0  0  0  0
  1 15  1  0  0  0  0
  1  3  1  0  0  0  0
  2  1  2  0  0  0  0
  3  4  1  0  0  0  0
  4  5  2  0  0  0  0
  5  9  1  0  0  0  0
  6  5  1  0  0  0  0
  6 11  1  0  0  0  0
  7  6  2  0  0  0  0
  8  3  2  0  0  0  0
  8  7  1  0  0  0  0
  9 10  1  0  0  0  0
 12 11  1  0  0  0  0
 13  8  1  0  0  0  0
 14 13  1  0  0  0  0
 15 18  1  0  0  0  0
 16 21  1  0  0  0  0
 17 16  2  0  0  0  0
 17 18  1  0  0  0  0
 18 19  2  0  0  0  0
 19 20  1  0  0  0  0
 21 24  1  0  0  0  0
 21 20  2  0  0  0  0
 22 23  1  0  0  0  0
 23 16  1  0  0  0  0
 24 25  1  0  0  0  0
M  END
>  <MODEL>
7

>  <REMARK>
 VINA RESULT:    -6.595      4.890      7.633
 INTER + INTRA:         -10.249
 INTER:                  -9.257
 INTRA:                  -0.992
 UNBOUND:                -0.956
  Name = CHEMBL1290123
  11 active torsions:
  status: ('A' for Active; 'I' for Inactive)
    1  A    between atoms: C_1  and  O_2
    2  A    between atoms: O_2  and  C_3
    3  A    between atoms: C_5  and  C_6
    4  A    between atoms: C_6  and  C_7
    5  A    between atoms: C_7  and  C_9
    6  A    between atoms: C_11  and  O_12
    7  A    between atoms: O_12  and  C_13
    8  A    between atoms: C_14  and  O_15
    9  A    between atoms: O_15  and  C_16
   10  A    between atoms: C_18  and  O_19
   11  A    between atoms: C_22  and  O_23
                            x       y       z     vdW  Elec       q    Type
                         _______ _______ _______ _____ _____    ______ ____

>  <TORSDO>
F 8

>  <SCORE>
-6.595

>  <RMSD_LB>
4.890

>  <RMSD_UB>
7.633

$$$$
CHEMBL1290123
 OpenBabel10162523533D

 25 26  0  0  0  0  0  0  0  0999 V2000
  144.0850  138.6810  150.8220 C   0  0  0  0  0  0  0  0  0  0  0  0
  144.0630  138.9730  149.6230 O   0  0  0  0  0  0  0  0  0  0  0  0
  144.8280  139.5870  151.7510 C   0  0  0  0  0  0  0  0  0  0  0  0
  145.2370  139.0330  152.9850 C   0  0  0  0  0  3  0  0  0  0  0  0
  146.0090  139.7630  153.9060 C   0  0  0  0  0  0  0  0  0  0  0  0
  146.3740  141.0790  153.5830 C   0  0  0  0  0  0  0  0  0  0  0  0
  145.9540  141.6320  152.3640 C   0  0  0  0  0  3  0  0  0  0  0  0
  145.2010  140.8950  151.4510 C   0  0  0  0  0  0  0  0  0  0  0  0
  146.4300  139.2510  155.1020 O   0  0  0  0  0  0  0  0  0  0  0  0
  147.4880  138.3010  155.1090 C   0  0  0  0  0  1  0  0  0  0  0  0
  147.1270  141.9680  154.3060 O   0  0  0  0  0  0  0  0  0  0  0  0
  148.5420  141.9000  154.2270 C   0  0  0  0  0  1  0  0  0  0  0  0
  144.8910  141.4730  150.2560 O   0  0  0  0  0  0  0  0  0  0  0  0
  144.2820  142.1840  150.2240 H   0  0  0  0  0  0  0  0  0  0  0  0
  143.4350  137.3980  151.3080 C   0  0  0  0  0  2  0  0  0  0  0  0
  140.3310  138.1130  153.4120 C   0  0  0  0  0  0  0  0  0  0  0  0
  141.6630  137.9690  153.0120 C   0  0  0  0  0  3  0  0  0  0  0  0
  141.9890  137.5730  151.7030 C   0  0  0  0  0  0  0  0  0  0  0  0
  140.9590  137.3120  150.7920 C   0  0  0  0  0  3  0  0  0  0  0  0
  139.6270  137.4390  151.1810 C   0  0  0  0  0  3  0  0  0  0  0  0
  139.3180  137.8400  152.4820 C   0  0  0  0  0  0  0  0  0  0  0  0
  140.7050  138.0510  155.7610 C   0  0  0  0  0  1  0  0  0  0  0  0
  139.9280  138.5060  154.6600 O   0  0  0  0  0  0  0  0  0  0  0  0
  138.0070  137.9640  152.8590 O   0  0  0  0  0  0  0  0  0  0  0  0
  137.7230  137.6230  153.6840 H   0  0  0  0  0  0  0  0  0  0  0  0
  1 15  1  0  0  0  0
  1  3  1  0  0  0  0
  2  1  2  0  0  0  0
  3  4  1  0  0  0  0
  4  5  2  0  0  0  0
  5  9  1  0  0  0  0
  6  5  1  0  0  0  0
  6 11  1  0  0  0  0
  7  6  2  0  0  0  0
  8  3  2  0  0  0  0
  8  7  1  0  0  0  0
  9 10  1  0  0  0  0
 12 11  1  0  0  0  0
 13  8  1  0  0  0  0
 14 13  1  0  0  0  0
 15 18  1  0  0  0  0
 16 23  1  0  0  0  0
 17 16  1  0  0  0  0
 18 17  2  0  0  0  0
 19 20  2  0  0  0  0
 19 18  1  0  0  0  0
 20 21  1  0  0  0  0
 21 24  1  0  0  0  0
 21 16  2  0  0  0  0
 23 22  1  0  0  0  0
 24 25  1  0  0  0  0
M  END
>  <MODEL>
8

>  <REMARK>
 VINA RESULT:    -6.576      5.109      8.131
 INTER + INTRA:         -10.223
 INTER:                  -9.138
 INTRA:                  -1.085
 UNBOUND:                -0.956
  Name = CHEMBL1290123
  11 active torsions:
  status: ('A' for Active; 'I' for Inactive)
    1  A    between atoms: C_1  and  O_2
    2  A    between atoms: O_2  and  C_3
    3  A    between atoms: C_5  and  C_6
    4  A    between atoms: C_6  and  C_7
    5  A    between atoms: C_7  and  C_9
    6  A    between atoms: C_11  and  O_12
    7  A    between atoms: O_12  and  C_13
    8  A    between atoms: C_14  and  O_15
    9  A    between atoms: O_15  and  C_16
   10  A    between atoms: C_18  and  O_19
   11  A    between atoms: C_22  and  O_23
                            x       y       z     vdW  Elec       q    Type
                         _______ _______ _______ _____ _____    ______ ____

>  <TORSDO>
F 8

>  <SCORE>
-6.576

>  <RMSD_LB>
5.109

>  <RMSD_UB>
8.131

$$$$
CHEMBL1290123
 OpenBabel10162523533D

 25 26  0  0  0  0  0  0  0  0999 V2000
  138.0590  137.1580  150.3770 C   0  0  0  0  0  0  0  0  0  0  0  0
  137.3520  138.1190  150.0580 O   0  0  0  0  0  0  0  0  0  0  0  0
  139.1590  137.3940  151.3620 C   0  0  0  0  0  0  0  0  0  0  0  0
  140.4800  137.2430  150.8860 C   0  0  0  0  0  3  0  0  0  0  0  0
  141.5970  137.5140  151.6970 C   0  0  0  0  0  0  0  0  0  0  0  0
  141.3800  137.9400  153.0170 C   0  0  0  0  0  0  0  0  0  0  0  0
  140.0680  138.0740  153.4930 C   0  0  0  0  0  3  0  0  0  0  0  0
  138.9680  137.8170  152.6750 C   0  0  0  0  0  0  0  0  0  0  0  0
  142.8870  137.3890  151.2610 O   0  0  0  0  0  0  0  0  0  0  0  0
  143.1800  136.4400  150.2440 C   0  0  0  0  0  1  0  0  0  0  0  0
  142.3010  138.2740  153.9760 O   0  0  0  0  0  0  0  0  0  0  0  0
  141.9410  139.2030  154.9860 C   0  0  0  0  0  1  0  0  0  0  0  0
  137.7220  138.0390  153.1830 O   0  0  0  0  0  0  0  0  0  0  0  0
  136.9680  137.7050  152.7390 H   0  0  0  0  0  0  0  0  0  0  0  0
  137.8520  135.8050  149.7200 C   0  0  0  0  0  2  0  0  0  0  0  0
  135.0650  134.4130  151.9280 C   0  0  0  0  0  0  0  0  0  0  0  0
  136.2310  135.0600  151.5060 C   0  0  0  0  0  3  0  0  0  0  0  0
  136.5720  135.1260  150.1450 C   0  0  0  0  0  0  0  0  0  0  0  0
  135.7310  134.5270  149.2000 C   0  0  0  0  0  3  0  0  0  0  0  0
  134.5720  133.8680  149.6080 C   0  0  0  0  0  3  0  0  0  0  0  0
  134.2430  133.8150  150.9640 C   0  0  0  0  0  0  0  0  0  0  0  0
  134.0860  135.4790  153.8180 C   0  0  0  0  0  1  0  0  0  0  0  0
  134.6540  134.3140  153.2300 O   0  0  0  0  0  0  0  0  0  0  0  0
  133.1030  133.1680  151.3590 O   0  0  0  0  0  0  0  0  0  0  0  0
  133.1630  132.3890  151.8760 H   0  0  0  0  0  0  0  0  0  0  0  0
  1  3  1  0  0  0  0
  2  1  2  0  0  0  0
  3  8  1  0  0  0  0
  4  3  2  0  0  0  0
  4  5  1  0  0  0  0
  5  6  2  0  0  0  0
  6  7  1  0  0  0  0
  6 11  1  0  0  0  0
  8 13  1  0  0  0  0
  8  7  2  0  0  0  0
  9  5  1  0  0  0  0
 10  9  1  0  0  0  0
 11 12  1  0  0  0  0
 14 13  1  0  0  0  0
 15 18  1  0  0  0  0
 15  1  1  0  0  0  0
 16 23  1  0  0  0  0
 17 16  1  0  0  0  0
 18 17  2  0  0  0  0
 19 20  2  0  0  0  0
 19 18  1  0  0  0  0
 20 21  1  0  0  0  0
 21 24  1  0  0  0  0
 21 16  2  0  0  0  0
 23 22  1  0  0  0  0
 24 25  1  0  0  0  0
M  END
>  <MODEL>
9

>  <REMARK>
 VINA RESULT:    -6.290      2.717      5.050
 INTER + INTRA:          -9.820
 INTER:                  -8.864
 INTRA:                  -0.956
 UNBOUND:                -0.956
  Name = CHEMBL1290123
  11 active torsions:
  status: ('A' for Active; 'I' for Inactive)
    1  A    between atoms: C_1  and  O_2
    2  A    between atoms: O_2  and  C_3
    3  A    between atoms: C_5  and  C_6
    4  A    between atoms: C_6  and  C_7
    5  A    between atoms: C_7  and  C_9
    6  A    between atoms: C_11  and  O_12
    7  A    between atoms: O_12  and  C_13
    8  A    between atoms: C_14  and  O_15
    9  A    between atoms: O_15  and  C_16
   10  A    between atoms: C_18  and  O_19
   11  A    between atoms: C_22  and  O_23
                            x       y       z     vdW  Elec       q    Type
                         _______ _______ _______ _____ _____    ______ ____

>  <TORSDO>
F 8

>  <SCORE>
-6.290

>  <RMSD_LB>
2.717

>  <RMSD_UB>
5.050

$$$$
