CHEMBL4641707
 OpenBabel10172500013D

 19 19  0  0  0  0  0  0  0  0999 V2000
  147.5230  141.8290  151.7400 C   0  0  0  0  0  0  0  0  0  0  0  0
  146.6340  142.2850  152.7140 C   0  0  0  0  0  3  0  0  0  0  0  0
  146.5100  141.6050  153.9260 C   0  0  0  0  0  3  0  0  0  0  0  0
  147.2730  140.4580  154.1740 C   0  0  0  0  0  0  0  0  0  0  0  0
  148.1640  139.9800  153.2100 C   0  0  0  0  0  0  0  0  0  0  0  0
  148.2740  140.6710  151.9950 C   0  0  0  0  0  3  0  0  0  0  0  0
  147.1150  139.8320  155.3800 O   0  0  0  0  0  0  0  0  0  0  0  0
  147.6090  140.1160  156.1240 H   0  0  0  0  0  0  0  0  0  0  0  0
  148.9850  138.8860  153.2740 O   0  0  0  0  0  0  0  0  0  0  0  0
  148.4620  137.6310  152.8630 C   0  0  0  0  0  1  0  0  0  0  0  0
  147.6720  142.5590  150.4310 C   0  0  0  0  0  2  0  0  0  0  0  0
  146.3930  142.5310  149.6060 C   0  0  0  0  0  2  0  0  0  0  0  0
  146.5270  141.5790  148.4330 C   0  0  0  0  0  0  0  0  0  0  0  0
  146.6550  142.0090  147.2850 O   0  0  0  0  0  0  0  0  0  0  0  0
  146.5060  140.0830  148.7010 C   0  0  0  0  0  2  0  0  0  0  0  0
  145.2430  139.6230  149.4230 C   0  0  0  0  0  2  0  0  0  0  0  0
  145.5430  138.5650  150.4880 C   0  0  0  0  0  2  0  0  0  0  0  0
  143.8720  140.0390  151.6540 C   0  0  0  0  0  1  0  0  0  0  0  0
  144.8890  138.9210  151.8200 C   0  0  0  0  0  2  0  0  0  0  0  0
  1  6  2  0  0  0  0
  1  2  1  0  0  0  0
  2  3  2  0  0  0  0
  3  4  1  0  0  0  0
  4  7  1  0  0  0  0
  5  9  1  0  0  0  0
  5  4  2  0  0  0  0
  6  5  1  0  0  0  0
  7  8  1  0  0  0  0
 10  9  1  0  0  0  0
 11  1  1  0  0  0  0
 12 11  1  0  0  0  0
 13 15  1  0  0  0  0
 13 12  1  0  0  0  0
 14 13  2  0  0  0  0
 15 16  1  0  0  0  0
 16 17  1  0  0  0  0
 17 19  1  0  0  0  0
 18 19  1  0  0  0  0
M  END
>  <MODEL>
1

>  <REMARK>
 VINA RESULT:    -6.188      0.000      0.000
 INTER + INTRA:          -9.821
 INTER:                  -7.937
 INTRA:                  -1.884
 UNBOUND:                -0.558
  Name = CHEMBL4641707
  11 active torsions:
  status: ('A' for Active; 'I' for Inactive)
    1  A    between atoms: C_1  and  C_2
    2  A    between atoms: C_2  and  C_3
    3  A    between atoms: C_3  and  C_4
    4  A    between atoms: C_4  and  C_5
    5  A    between atoms: C_5  and  C_6
    6  A    between atoms: C_6  and  C_8
    7  A    between atoms: C_8  and  C_9
    8  A    between atoms: C_9  and  C_10
    9  A    between atoms: C_13  and  O_14
   10  A    between atoms: C_15  and  O_16
   11  A    between atoms: O_16  and  C_17
                            x       y       z     vdW  Elec       q    Type
                         _______ _______ _______ _____ _____    ______ ____

>  <TORSDO>
F 9

>  <SCORE>
-6.188

>  <RMSD_LB>
0.000

>  <RMSD_UB>
0.000

$$$$
CHEMBL4641707
 OpenBabel10172500013D

 19 19  0  0  0  0  0  0  0  0999 V2000
  134.8770  133.7980  149.5030 C   0  0  0  0  0  0  0  0  0  0  0  0
  133.7320  133.0720  149.1720 C   0  0  0  0  0  3  0  0  0  0  0  0
  133.3770  132.8930  147.8340 C   0  0  0  0  0  3  0  0  0  0  0  0
  134.1620  133.4430  146.8140 C   0  0  0  0  0  0  0  0  0  0  0  0
  135.3090  134.1800  147.1250 C   0  0  0  0  0  0  0  0  0  0  0  0
  135.6500  134.3550  148.4740 C   0  0  0  0  0  3  0  0  0  0  0  0
  133.7710  133.2350  145.5210 O   0  0  0  0  0  0  0  0  0  0  0  0
  133.7530  132.3660  145.1700 H   0  0  0  0  0  0  0  0  0  0  0  0
  136.1920  134.7860  146.2720 O   0  0  0  0  0  0  0  0  0  0  0  0
  137.5700  134.7680  146.6120 C   0  0  0  0  0  1  0  0  0  0  0  0
  135.2750  133.9910  150.9430 C   0  0  0  0  0  2  0  0  0  0  0  0
  134.0740  134.2340  151.8470 C   0  0  0  0  0  2  0  0  0  0  0  0
  133.6130  135.6760  151.7570 C   0  0  0  0  0  0  0  0  0  0  0  0
  134.0510  136.5260  152.5350 O   0  0  0  0  0  0  0  0  0  0  0  0
  132.6050  136.0540  150.6850 C   0  0  0  0  0  2  0  0  0  0  0  0
  133.1840  136.9790  149.6190 C   0  0  0  0  0  2  0  0  0  0  0  0
  132.5230  136.7710  148.2550 C   0  0  0  0  0  2  0  0  0  0  0  0
  132.8450  136.9130  145.7660 C   0  0  0  0  0  1  0  0  0  0  0  0
  133.4020  137.3010  147.1260 C   0  0  0  0  0  2  0  0  0  0  0  0
  1 11  1  0  0  0  0
  2  1  1  0  0  0  0
  3  2  2  0  0  0  0
  4  5  2  0  0  0  0
  4  3  1  0  0  0  0
  5  6  1  0  0  0  0
  6  1  2  0  0  0  0
  7  4  1  0  0  0  0
  8  7  1  0  0  0  0
  9 10  1  0  0  0  0
  9  5  1  0  0  0  0
 11 12  1  0  0  0  0
 13 12  1  0  0  0  0
 13 14  2  0  0  0  0
 15 13  1  0  0  0  0
 16 15  1  0  0  0  0
 17 16  1  0  0  0  0
 18 19  1  0  0  0  0
 19 17  1  0  0  0  0
M  END
>  <MODEL>
2

>  <REMARK>
 VINA RESULT:    -5.986     12.393     14.840
 INTER + INTRA:          -9.518
 INTER:                  -8.054
 INTRA:                  -1.465
 UNBOUND:                -0.558
  Name = CHEMBL4641707
  11 active torsions:
  status: ('A' for Active; 'I' for Inactive)
    1  A    between atoms: C_1  and  C_2
    2  A    between atoms: C_2  and  C_3
    3  A    between atoms: C_3  and  C_4
    4  A    between atoms: C_4  and  C_5
    5  A    between atoms: C_5  and  C_6
    6  A    between atoms: C_6  and  C_8
    7  A    between atoms: C_8  and  C_9
    8  A    between atoms: C_9  and  C_10
    9  A    between atoms: C_13  and  O_14
   10  A    between atoms: C_15  and  O_16
   11  A    between atoms: O_16  and  C_17
                            x       y       z     vdW  Elec       q    Type
                         _______ _______ _______ _____ _____    ______ ____

>  <TORSDO>
F 9

>  <SCORE>
-5.986

>  <RMSD_LB>
12.393

>  <RMSD_UB>
14.840

$$$$
CHEMBL4641707
 OpenBabel10172500013D

 19 19  0  0  0  0  0  0  0  0999 V2000
  135.1870  135.0680  155.4830 C   0  0  0  0  0  0  0  0  0  0  0  0
  136.3360  135.8550  155.3940 C   0  0  0  0  0  3  0  0  0  0  0  0
  136.9670  136.3080  156.5530 C   0  0  0  0  0  3  0  0  0  0  0  0
  136.4520  135.9820  157.8130 C   0  0  0  0  0  0  0  0  0  0  0  0
  135.2980  135.2000  157.9240 C   0  0  0  0  0  0  0  0  0  0  0  0
  134.6730  134.7560  156.7500 C   0  0  0  0  0  3  0  0  0  0  0  0
  137.1120  136.4490  158.9160 O   0  0  0  0  0  0  0  0  0  0  0  0
  137.9600  136.1140  159.1320 H   0  0  0  0  0  0  0  0  0  0  0  0
  134.6550  134.7830  159.0580 O   0  0  0  0  0  0  0  0  0  0  0  0
  133.9840  135.7570  159.8430 C   0  0  0  0  0  1  0  0  0  0  0  0
  134.5010  134.5660  154.2400 C   0  0  0  0  0  2  0  0  0  0  0  0
  135.4130  134.6060  153.0210 C   0  0  0  0  0  2  0  0  0  0  0  0
  135.0850  135.7960  152.1400 C   0  0  0  0  0  0  0  0  0  0  0  0
  135.9520  136.6240  151.8530 O   0  0  0  0  0  0  0  0  0  0  0  0
  133.6670  135.9450  151.6120 C   0  0  0  0  0  2  0  0  0  0  0  0
  133.4500  135.2410  150.2760 C   0  0  0  0  0  2  0  0  0  0  0  0
  132.8600  133.8410  150.4530 C   0  0  0  0  0  2  0  0  0  0  0  0
  134.1400  132.7950  148.5580 C   0  0  0  0  0  1  0  0  0  0  0  0
  133.8630  132.7620  150.0530 C   0  0  0  0  0  2  0  0  0  0  0  0
  1  6  1  0  0  0  0
  2  1  2  0  0  0  0
  2  3  1  0  0  0  0
  3  4  2  0  0  0  0
  4  5  1  0  0  0  0
  4  7  1  0  0  0  0
  5  9  1  0  0  0  0
  6  5  2  0  0  0  0
  7  8  1  0  0  0  0
  9 10  1  0  0  0  0
 11  1  1  0  0  0  0
 12 11  1  0  0  0  0
 13 12  1  0  0  0  0
 14 13  2  0  0  0  0
 15 13  1  0  0  0  0
 16 17  1  0  0  0  0
 16 15  1  0  0  0  0
 18 19  1  0  0  0  0
 19 17  1  0  0  0  0
M  END
>  <MODEL>
3

>  <REMARK>
 VINA RESULT:    -5.798     12.062     13.701
 INTER + INTRA:          -9.238
 INTER:                  -8.580
 INTRA:                  -0.658
 UNBOUND:                -0.558
  Name = CHEMBL4641707
  11 active torsions:
  status: ('A' for Active; 'I' for Inactive)
    1  A    between atoms: C_1  and  C_2
    2  A    between atoms: C_2  and  C_3
    3  A    between atoms: C_3  and  C_4
    4  A    between atoms: C_4  and  C_5
    5  A    between atoms: C_5  and  C_6
    6  A    between atoms: C_6  and  C_8
    7  A    between atoms: C_8  and  C_9
    8  A    between atoms: C_9  and  C_10
    9  A    between atoms: C_13  and  O_14
   10  A    between atoms: C_15  and  O_16
   11  A    between atoms: O_16  and  C_17
                            x       y       z     vdW  Elec       q    Type
                         _______ _______ _______ _____ _____    ______ ____

>  <TORSDO>
F 9

>  <SCORE>
-5.798

>  <RMSD_LB>
12.062

>  <RMSD_UB>
13.701

$$$$
CHEMBL4641707
 OpenBabel10172500013D

 19 19  0  0  0  0  0  0  0  0999 V2000
  141.6480  137.7550  152.0940 C   0  0  0  0  0  0  0  0  0  0  0  0
  140.3600  137.6880  151.5640 C   0  0  0  0  0  3  0  0  0  0  0  0
  139.2770  138.1950  152.2830 C   0  0  0  0  0  3  0  0  0  0  0  0
  139.4740  138.7710  153.5440 C   0  0  0  0  0  0  0  0  0  0  0  0
  140.7550  138.8420  154.0970 C   0  0  0  0  0  0  0  0  0  0  0  0
  141.8330  138.3240  153.3630 C   0  0  0  0  0  3  0  0  0  0  0  0
  138.3790  139.2560  154.2040 O   0  0  0  0  0  0  0  0  0  0  0  0
  137.5530  139.3150  153.7650 H   0  0  0  0  0  0  0  0  0  0  0  0
  141.1380  139.3650  155.3030 O   0  0  0  0  0  0  0  0  0  0  0  0
  142.5160  139.6390  155.5060 C   0  0  0  0  0  1  0  0  0  0  0  0
  142.8270  137.2180  151.3240 C   0  0  0  0  0  2  0  0  0  0  0  0
  142.9370  137.8330  149.9360 C   0  0  0  0  0  2  0  0  0  0  0  0
  143.3280  139.2960  150.0230 C   0  0  0  0  0  0  0  0  0  0  0  0
  142.5500  140.1780  149.6530 O   0  0  0  0  0  0  0  0  0  0  0  0
  144.6950  139.6550  150.5820 C   0  0  0  0  0  2  0  0  0  0  0  0
  144.6200  140.4010  151.9110 C   0  0  0  0  0  2  0  0  0  0  0  0
  145.3680  141.7350  151.8640 C   0  0  0  0  0  2  0  0  0  0  0  0
  147.1310  142.5360  150.2600 C   0  0  0  0  0  1  0  0  0  0  0  0
  145.6700  142.1500  150.4260 C   0  0  0  0  0  2  0  0  0  0  0  0
  1  6  1  0  0  0  0
  2  1  2  0  0  0  0
  2  3  1  0  0  0  0
  3  4  2  0  0  0  0
  4  5  1  0  0  0  0
  4  7  1  0  0  0  0
  5  9  1  0  0  0  0
  6  5  2  0  0  0  0
  8  7  1  0  0  0  0
  9 10  1  0  0  0  0
 11  1  1  0  0  0  0
 12 13  1  0  0  0  0
 12 11  1  0  0  0  0
 13 15  1  0  0  0  0
 14 13  2  0  0  0  0
 15 16  1  0  0  0  0
 17 16  1  0  0  0  0
 18 19  1  0  0  0  0
 19 17  1  0  0  0  0
M  END
>  <MODEL>
4

>  <REMARK>
 VINA RESULT:    -5.793      3.991      6.362
 INTER + INTRA:          -9.231
 INTER:                  -8.234
 INTRA:                  -0.997
 UNBOUND:                -0.558
  Name = CHEMBL4641707
  11 active torsions:
  status: ('A' for Active; 'I' for Inactive)
    1  A    between atoms: C_1  and  C_2
    2  A    between atoms: C_2  and  C_3
    3  A    between atoms: C_3  and  C_4
    4  A    between atoms: C_4  and  C_5
    5  A    between atoms: C_5  and  C_6
    6  A    between atoms: C_6  and  C_8
    7  A    between atoms: C_8  and  C_9
    8  A    between atoms: C_9  and  C_10
    9  A    between atoms: C_13  and  O_14
   10  A    between atoms: C_15  and  O_16
   11  A    between atoms: O_16  and  C_17
                            x       y       z     vdW  Elec       q    Type
                         _______ _______ _______ _____ _____    ______ ____

>  <TORSDO>
F 9

>  <SCORE>
-5.793

>  <RMSD_LB>
3.991

>  <RMSD_UB>
6.362

$$$$
CHEMBL4641707
 OpenBabel10172500013D

 19 19  0  0  0  0  0  0  0  0999 V2000
  135.7970  135.4810  154.5720 C   0  0  0  0  0  0  0  0  0  0  0  0
  134.6940  134.7820  155.0640 C   0  0  0  0  0  3  0  0  0  0  0  0
  134.5210  134.6210  156.4390 C   0  0  0  0  0  3  0  0  0  0  0  0
  135.4540  135.1550  157.3360 C   0  0  0  0  0  0  0  0  0  0  0  0
  136.5700  135.8510  156.8640 C   0  0  0  0  0  0  0  0  0  0  0  0
  136.7320  136.0010  155.4790 C   0  0  0  0  0  3  0  0  0  0  0  0
  135.2340  134.9710  158.6730 O   0  0  0  0  0  0  0  0  0  0  0  0
  135.4470  135.6510  159.2820 H   0  0  0  0  0  0  0  0  0  0  0  0
  137.5770  136.4380  157.5820 O   0  0  0  0  0  0  0  0  0  0  0  0
  137.3920  137.7740  158.0260 C   0  0  0  0  0  1  0  0  0  0  0  0
  135.9910  135.6680  153.0900 C   0  0  0  0  0  2  0  0  0  0  0  0
  135.7370  134.3870  152.3080 C   0  0  0  0  0  2  0  0  0  0  0  0
  134.5610  134.5530  151.3650 C   0  0  0  0  0  0  0  0  0  0  0  0
  134.2200  133.6350  150.6160 O   0  0  0  0  0  0  0  0  0  0  0  0
  133.8060  135.8720  151.3660 C   0  0  0  0  0  2  0  0  0  0  0  0
  132.5990  135.8690  150.4320 C   0  0  0  0  0  2  0  0  0  0  0  0
  132.6850  136.9760  149.3790 C   0  0  0  0  0  2  0  0  0  0  0  0
  132.6980  137.3190  146.8880 C   0  0  0  0  0  1  0  0  0  0  0  0
  133.1460  136.4240  148.0330 C   0  0  0  0  0  2  0  0  0  0  0  0
  1  2  2  0  0  0  0
  1  6  1  0  0  0  0
  2  3  1  0  0  0  0
  3  4  2  0  0  0  0
  4  7  1  0  0  0  0
  5  4  1  0  0  0  0
  5  9  1  0  0  0  0
  6  5  2  0  0  0  0
  7  8  1  0  0  0  0
  9 10  1  0  0  0  0
 11  1  1  0  0  0  0
 12 11  1  0  0  0  0
 13 15  1  0  0  0  0
 13 12  1  0  0  0  0
 14 13  2  0  0  0  0
 16 15  1  0  0  0  0
 17 16  1  0  0  0  0
 18 19  1  0  0  0  0
 19 17  1  0  0  0  0
M  END
>  <MODEL>
5

>  <REMARK>
 VINA RESULT:    -5.712     11.844     13.411
 INTER + INTRA:          -9.109
 INTER:                  -8.482
 INTRA:                  -0.627
 UNBOUND:                -0.558
  Name = CHEMBL4641707
  11 active torsions:
  status: ('A' for Active; 'I' for Inactive)
    1  A    between atoms: C_1  and  C_2
    2  A    between atoms: C_2  and  C_3
    3  A    between atoms: C_3  and  C_4
    4  A    between atoms: C_4  and  C_5
    5  A    between atoms: C_5  and  C_6
    6  A    between atoms: C_6  and  C_8
    7  A    between atoms: C_8  and  C_9
    8  A    between atoms: C_9  and  C_10
    9  A    between atoms: C_13  and  O_14
   10  A    between atoms: C_15  and  O_16
   11  A    between atoms: O_16  and  C_17
                            x       y       z     vdW  Elec       q    Type
                         _______ _______ _______ _____ _____    ______ ____

>  <TORSDO>
F 9

>  <SCORE>
-5.712

>  <RMSD_LB>
11.844

>  <RMSD_UB>
13.411

$$$$
CHEMBL4641707
 OpenBabel10172500013D

 19 19  0  0  0  0  0  0  0  0999 V2000
  146.5080  142.0660  151.3920 C   0  0  0  0  0  0  0  0  0  0  0  0
  147.5030  142.4870  150.5100 C   0  0  0  0  0  3  0  0  0  0  0  0
  148.8280  142.5820  150.9400 C   0  0  0  0  0  3  0  0  0  0  0  0
  149.1680  142.2600  152.2590 C   0  0  0  0  0  0  0  0  0  0  0  0
  148.1840  141.8420  153.1610 C   0  0  0  0  0  0  0  0  0  0  0  0
  146.8570  141.7560  152.7150 C   0  0  0  0  0  3  0  0  0  0  0  0
  150.4810  142.3660  152.6270 O   0  0  0  0  0  0  0  0  0  0  0  0
  151.0950  142.7870  152.0570 H   0  0  0  0  0  0  0  0  0  0  0  0
  148.3260  141.4870  154.4750 O   0  0  0  0  0  0  0  0  0  0  0  0
  148.3780  140.1040  154.7930 C   0  0  0  0  0  1  0  0  0  0  0  0
  145.0760  141.9520  150.9380 C   0  0  0  0  0  2  0  0  0  0  0  0
  144.7390  140.5540  150.4360 C   0  0  0  0  0  2  0  0  0  0  0  0
  143.7570  139.8680  151.3660 C   0  0  0  0  0  0  0  0  0  0  0  0
  142.5420  139.9560  151.1740 O   0  0  0  0  0  0  0  0  0  0  0  0
  144.2990  139.0640  152.5360 C   0  0  0  0  0  2  0  0  0  0  0  0
  144.2640  137.5580  152.2940 C   0  0  0  0  0  2  0  0  0  0  0  0
  145.6320  137.0110  151.8800 C   0  0  0  0  0  2  0  0  0  0  0  0
  148.1130  137.2870  152.1790 C   0  0  0  0  0  1  0  0  0  0  0  0
  146.7540  137.9610  152.2860 C   0  0  0  0  0  2  0  0  0  0  0  0
  1  6  1  0  0  0  0
  2  3  1  0  0  0  0
  2  1  2  0  0  0  0
  3  4  2  0  0  0  0
  4  7  1  0  0  0  0
  4  5  1  0  0  0  0
  5  9  1  0  0  0  0
  6  5  2  0  0  0  0
  8  7  1  0  0  0  0
  9 10  1  0  0  0  0
 11  1  1  0  0  0  0
 12 11  1  0  0  0  0
 12 13  1  0  0  0  0
 13 15  1  0  0  0  0
 14 13  2  0  0  0  0
 16 15  1  0  0  0  0
 17 19  1  0  0  0  0
 17 16  1  0  0  0  0
 18 19  1  0  0  0  0
M  END
>  <MODEL>
6

>  <REMARK>
 VINA RESULT:    -5.711      2.164      3.517
 INTER + INTRA:          -9.107
 INTER:                  -8.038
 INTRA:                  -1.070
 UNBOUND:                -0.558
  Name = CHEMBL4641707
  11 active torsions:
  status: ('A' for Active; 'I' for Inactive)
    1  A    between atoms: C_1  and  C_2
    2  A    between atoms: C_2  and  C_3
    3  A    between atoms: C_3  and  C_4
    4  A    between atoms: C_4  and  C_5
    5  A    between atoms: C_5  and  C_6
    6  A    between atoms: C_6  and  C_8
    7  A    between atoms: C_8  and  C_9
    8  A    between atoms: C_9  and  C_10
    9  A    between atoms: C_13  and  O_14
   10  A    between atoms: C_15  and  O_16
   11  A    between atoms: O_16  and  C_17
                            x       y       z     vdW  Elec       q    Type
                         _______ _______ _______ _____ _____    ______ ____

>  <TORSDO>
F 9

>  <SCORE>
-5.711

>  <RMSD_LB>
2.164

>  <RMSD_UB>
3.517

$$$$
CHEMBL4641707
 OpenBabel10172500013D

 19 19  0  0  0  0  0  0  0  0999 V2000
  135.6030  134.9310  152.7000 C   0  0  0  0  0  0  0  0  0  0  0  0
  134.9490  133.8940  153.3670 C   0  0  0  0  0  3  0  0  0  0  0  0
  134.6560  134.0090  154.7270 C   0  0  0  0  0  3  0  0  0  0  0  0
  135.0190  135.1610  155.4330 C   0  0  0  0  0  0  0  0  0  0  0  0
  135.6810  136.2080  154.7860 C   0  0  0  0  0  0  0  0  0  0  0  0
  135.9720  136.0770  153.4200 C   0  0  0  0  0  3  0  0  0  0  0  0
  134.7040  135.2230  156.7630 O   0  0  0  0  0  0  0  0  0  0  0  0
  134.5360  136.0510  157.1680 H   0  0  0  0  0  0  0  0  0  0  0  0
  136.1080  137.4000  155.3060 O   0  0  0  0  0  0  0  0  0  0  0  0
  137.4260  137.4670  155.8300 C   0  0  0  0  0  1  0  0  0  0  0  0
  135.9170  134.8230  151.2310 C   0  0  0  0  0  2  0  0  0  0  0  0
  135.0950  135.7910  150.3920 C   0  0  0  0  0  2  0  0  0  0  0  0
  133.6480  135.3440  150.3130 C   0  0  0  0  0  0  0  0  0  0  0  0
  132.7300  136.1570  150.4410 O   0  0  0  0  0  0  0  0  0  0  0  0
  133.3500  133.8740  150.0690 C   0  0  0  0  0  2  0  0  0  0  0  0
  132.5470  133.6310  148.7950 C   0  0  0  0  0  2  0  0  0  0  0  0
  133.4470  133.2930  147.6040 C   0  0  0  0  0  2  0  0  0  0  0  0
  135.7570  132.5530  146.9430 C   0  0  0  0  0  1  0  0  0  0  0  0
  134.7220  132.5870  148.0560 C   0  0  0  0  0  2  0  0  0  0  0  0
  1  2  2  0  0  0  0
  1  6  1  0  0  0  0
  2  3  1  0  0  0  0
  3  4  2  0  0  0  0
  4  7  1  0  0  0  0
  5  9  1  0  0  0  0
  5  4  1  0  0  0  0
  6  5  2  0  0  0  0
  7  8  1  0  0  0  0
  9 10  1  0  0  0  0
 11  1  1  0  0  0  0
 12 11  1  0  0  0  0
 13 12  1  0  0  0  0
 13 14  2  0  0  0  0
 15 13  1  0  0  0  0
 16 15  1  0  0  0  0
 17 19  1  0  0  0  0
 17 16  1  0  0  0  0
 18 19  1  0  0  0  0
M  END
>  <MODEL>
7

>  <REMARK>
 VINA RESULT:    -5.657     11.439     13.576
 INTER + INTRA:          -9.027
 INTER:                  -8.134
 INTRA:                  -0.893
 UNBOUND:                -0.558
  Name = CHEMBL4641707
  11 active torsions:
  status: ('A' for Active; 'I' for Inactive)
    1  A    between atoms: C_1  and  C_2
    2  A    between atoms: C_2  and  C_3
    3  A    between atoms: C_3  and  C_4
    4  A    between atoms: C_4  and  C_5
    5  A    between atoms: C_5  and  C_6
    6  A    between atoms: C_6  and  C_8
    7  A    between atoms: C_8  and  C_9
    8  A    between atoms: C_9  and  C_10
    9  A    between atoms: C_13  and  O_14
   10  A    between atoms: C_15  and  O_16
   11  A    between atoms: O_16  and  C_17
                            x       y       z     vdW  Elec       q    Type
                         _______ _______ _______ _____ _____    ______ ____

>  <TORSDO>
F 9

>  <SCORE>
-5.657

>  <RMSD_LB>
11.439

>  <RMSD_UB>
13.576

$$$$
CHEMBL4641707
 OpenBabel10172500013D

 19 19  0  0  0  0  0  0  0  0999 V2000
  146.3040  141.5140  151.6160 C   0  0  0  0  0  0  0  0  0  0  0  0
  147.1330  142.1840  150.7150 C   0  0  0  0  0  3  0  0  0  0  0  0
  148.4590  142.4560  151.0510 C   0  0  0  0  0  3  0  0  0  0  0  0
  148.9690  142.0630  152.2940 C   0  0  0  0  0  0  0  0  0  0  0  0
  148.1540  141.3960  153.2130 C   0  0  0  0  0  0  0  0  0  0  0  0
  146.8220  141.1340  152.8630 C   0  0  0  0  0  3  0  0  0  0  0  0
  150.2770  142.3510  152.5700 O   0  0  0  0  0  0  0  0  0  0  0  0
  150.8120  141.7230  153.0150 H   0  0  0  0  0  0  0  0  0  0  0  0
  148.4740  140.9380  154.4630 O   0  0  0  0  0  0  0  0  0  0  0  0
  148.1320  139.6000  154.7930 C   0  0  0  0  0  1  0  0  0  0  0  0
  144.8720  141.2070  151.2620 C   0  0  0  0  0  2  0  0  0  0  0  0
  144.3470  139.9790  151.9930 C   0  0  0  0  0  2  0  0  0  0  0  0
  144.4580  138.7430  151.1210 C   0  0  0  0  0  0  0  0  0  0  0  0
  144.9380  138.8130  149.9880 O   0  0  0  0  0  0  0  0  0  0  0  0
  143.9720  137.4130  151.6750 C   0  0  0  0  0  2  0  0  0  0  0  0
  142.7860  137.5590  152.6230 C   0  0  0  0  0  2  0  0  0  0  0  0
  141.4470  137.4370  151.8910 C   0  0  0  0  0  2  0  0  0  0  0  0
  139.0290  137.7990  152.4740 C   0  0  0  0  0  1  0  0  0  0  0  0
  140.4180  138.4150  152.4520 C   0  0  0  0  0  2  0  0  0  0  0  0
  1  6  1  0  0  0  0
  2  3  1  0  0  0  0
  2  1  2  0  0  0  0
  3  4  2  0  0  0  0
  4  7  1  0  0  0  0
  4  5  1  0  0  0  0
  5  9  1  0  0  0  0
  6  5  2  0  0  0  0
  7  8  1  0  0  0  0
  9 10  1  0  0  0  0
 11  1  1  0  0  0  0
 11 12  1  0  0  0  0
 13 15  1  0  0  0  0
 13 12  1  0  0  0  0
 14 13  2  0  0  0  0
 15 16  1  0  0  0  0
 17 19  1  0  0  0  0
 17 16  1  0  0  0  0
 19 18  1  0  0  0  0
M  END
>  <MODEL>
8

>  <REMARK>
 VINA RESULT:    -5.636      2.583      3.727
 INTER + INTRA:          -8.996
 INTER:                  -8.402
 INTRA:                  -0.593
 UNBOUND:                -0.558
  Name = CHEMBL4641707
  11 active torsions:
  status: ('A' for Active; 'I' for Inactive)
    1  A    between atoms: C_1  and  C_2
    2  A    between atoms: C_2  and  C_3
    3  A    between atoms: C_3  and  C_4
    4  A    between atoms: C_4  and  C_5
    5  A    between atoms: C_5  and  C_6
    6  A    between atoms: C_6  and  C_8
    7  A    between atoms: C_8  and  C_9
    8  A    between atoms: C_9  and  C_10
    9  A    between atoms: C_13  and  O_14
   10  A    between atoms: C_15  and  O_16
   11  A    between atoms: O_16  and  C_17
                            x       y       z     vdW  Elec       q    Type
                         _______ _______ _______ _____ _____    ______ ____

>  <TORSDO>
F 9

>  <SCORE>
-5.636

>  <RMSD_LB>
2.583

>  <RMSD_UB>
3.727

$$$$
CHEMBL4641707
 OpenBabel10172500013D

 19 19  0  0  0  0  0  0  0  0999 V2000
  141.4190  137.8310  153.3860 C   0  0  0  0  0  0  0  0  0  0  0  0
  141.3880  137.5440  152.0210 C   0  0  0  0  0  3  0  0  0  0  0  0
  140.1770  137.5670  151.3260 C   0  0  0  0  0  3  0  0  0  0  0  0
  138.9850  137.8740  151.9930 C   0  0  0  0  0  0  0  0  0  0  0  0
  138.9940  138.1580  153.3620 C   0  0  0  0  0  0  0  0  0  0  0  0
  140.2170  138.1260  154.0470 C   0  0  0  0  0  3  0  0  0  0  0  0
  137.8280  137.8870  151.2640 O   0  0  0  0  0  0  0  0  0  0  0  0
  137.8590  138.0230  150.3370 H   0  0  0  0  0  0  0  0  0  0  0  0
  137.9390  138.4770  154.1740 O   0  0  0  0  0  0  0  0  0  0  0  0
  138.0330  138.1470  155.5520 C   0  0  0  0  0  1  0  0  0  0  0  0
  142.7200  137.8170  154.1450 C   0  0  0  0  0  2  0  0  0  0  0  0
  143.9250  137.6970  153.2230 C   0  0  0  0  0  2  0  0  0  0  0  0
  145.2170  137.7110  154.0170 C   0  0  0  0  0  0  0  0  0  0  0  0
  145.9360  136.7100  154.0650 O   0  0  0  0  0  0  0  0  0  0  0  0
  145.6120  138.9840  154.7470 C   0  0  0  0  0  2  0  0  0  0  0  0
  145.4690  140.2350  153.8860 C   0  0  0  0  0  2  0  0  0  0  0  0
  146.8240  140.8680  153.5610 C   0  0  0  0  0  2  0  0  0  0  0  0
  145.6530  142.2220  151.7960 C   0  0  0  0  0  1  0  0  0  0  0  0
  146.6540  142.2510  152.9390 C   0  0  0  0  0  2  0  0  0  0  0  0
  1  6  1  0  0  0  0
  1 11  1  0  0  0  0
  2  1  2  0  0  0  0
  3  4  2  0  0  0  0
  3  2  1  0  0  0  0
  4  5  1  0  0  0  0
  5  6  2  0  0  0  0
  5  9  1  0  0  0  0
  7  4  1  0  0  0  0
  8  7  1  0  0  0  0
  9 10  1  0  0  0  0
 12 13  1  0  0  0  0
 12 11  1  0  0  0  0
 13 14  2  0  0  0  0
 13 15  1  0  0  0  0
 16 15  1  0  0  0  0
 17 16  1  0  0  0  0
 18 19  1  0  0  0  0
 19 17  1  0  0  0  0
M  END
>  <MODEL>
9

>  <REMARK>
 VINA RESULT:    -5.530      4.837      7.758
 INTER + INTRA:          -8.836
 INTER:                  -8.277
 INTRA:                  -0.558
 UNBOUND:                -0.558
  Name = CHEMBL4641707
  11 active torsions:
  status: ('A' for Active; 'I' for Inactive)
    1  A    between atoms: C_1  and  C_2
    2  A    between atoms: C_2  and  C_3
    3  A    between atoms: C_3  and  C_4
    4  A    between atoms: C_4  and  C_5
    5  A    between atoms: C_5  and  C_6
    6  A    between atoms: C_6  and  C_8
    7  A    between atoms: C_8  and  C_9
    8  A    between atoms: C_9  and  C_10
    9  A    between atoms: C_13  and  O_14
   10  A    between atoms: C_15  and  O_16
   11  A    between atoms: O_16  and  C_17
                            x       y       z     vdW  Elec       q    Type
                         _______ _______ _______ _____ _____    ______ ____

>  <TORSDO>
F 9

>  <SCORE>
-5.530

>  <RMSD_LB>
4.837

>  <RMSD_UB>
7.758

$$$$
