CHEMBL1270259
 OpenBabel10162523463D

 26 27  0  0  0  0  0  0  0  0999 V2000
  145.5370  138.3560  148.7670 C   0  0  0  0  0  0  0  0  0  0  0  0
  145.8500  137.9800  147.6360 O   0  0  0  0  0  0  0  0  0  0  0  0
  145.3090  139.8200  149.0870 C   0  0  0  0  0  2  0  0  0  0  0  0
  146.6340  140.5460  149.2960 C   0  0  0  0  0  2  0  0  0  0  0  0
  147.9160  140.5460  152.8940 C   0  0  0  0  0  0  0  0  0  0  0  0
  147.7260  140.2010  151.5510 C   0  0  0  0  0  3  0  0  0  0  0  0
  146.8470  140.9350  150.7370 C   0  0  0  0  0  0  0  0  0  0  0  0
  146.1720  142.0380  151.2740 C   0  0  0  0  0  3  0  0  0  0  0  0
  146.3520  142.3910  152.6110 C   0  0  0  0  0  3  0  0  0  0  0  0
  147.2160  141.6450  153.4110 C   0  0  0  0  0  0  0  0  0  0  0  0
  149.0280  138.5240  153.4910 C   0  0  0  0  0  1  0  0  0  0  0  0
  148.7420  139.8870  153.7650 O   0  0  0  0  0  0  0  0  0  0  0  0
  147.3850  141.9870  154.7270 O   0  0  0  0  0  0  0  0  0  0  0  0
  148.2350  142.2190  155.0460 H   0  0  0  0  0  0  0  0  0  0  0  0
  145.3580  137.3780  149.9140 C   0  0  0  0  0  2  0  0  0  0  0  0
  143.9350  136.8310  149.9770 C   0  0  0  0  0  2  0  0  0  0  0  0
  142.9950  137.8170  150.6700 C   0  0  0  0  0  2  0  0  0  0  0  0
  142.6660  137.3570  152.0910 C   0  0  0  0  0  2  0  0  0  0  0  0
  143.6780  137.8600  153.0880 C   0  0  0  0  0  0  0  0  0  0  0  0
  143.5550  139.1460  153.6320 C   0  0  0  0  0  3  0  0  0  0  0  0
  144.4880  139.6170  154.5590 C   0  0  0  0  0  3  0  0  0  0  0  0
  145.5480  138.7990  154.9360 C   0  0  0  0  0  0  0  0  0  0  0  0
  145.6940  137.5280  154.3960 C   0  0  0  0  0  3  0  0  0  0  0  0
  144.7610  137.0590  153.4700 C   0  0  0  0  0  3  0  0  0  0  0  0
  146.4770  139.2150  155.8430 O   0  0  0  0  0  0  0  0  0  0  0  0
  147.3850  139.2330  155.6110 H   0  0  0  0  0  0  0  0  0  0  0  0
  1  3  1  0  0  0  0
  1 15  1  0  0  0  0
  2  1  2  0  0  0  0
  3  4  1  0  0  0  0
  4  7  1  0  0  0  0
  5 10  1  0  0  0  0
  5 12  1  0  0  0  0
  6  5  2  0  0  0  0
  7  8  2  0  0  0  0
  7  6  1  0  0  0  0
  8  9  1  0  0  0  0
  9 10  2  0  0  0  0
 10 13  1  0  0  0  0
 11 12  1  0  0  0  0
 13 14  1  0  0  0  0
 15 16  1  0  0  0  0
 16 17  1  0  0  0  0
 17 18  1  0  0  0  0
 18 19  1  0  0  0  0
 19 24  2  0  0  0  0
 19 20  1  0  0  0  0
 20 21  2  0  0  0  0
 21 22  1  0  0  0  0
 22 25  1  0  0  0  0
 23 22  2  0  0  0  0
 24 23  1  0  0  0  0
 26 25  1  0  0  0  0
M  END
>  <MODEL>
1

>  <REMARK>
 VINA RESULT:    -7.133      0.000      0.000
 INTER + INTRA:         -11.981
 INTER:                  -9.719
 INTRA:                  -2.262
 UNBOUND:                -0.678
  Name = CHEMBL1270259
  12 active torsions:
  status: ('A' for Active; 'I' for Inactive)
    1  A    between atoms: C_1  and  O_2
    2  A    between atoms: O_2  and  C_3
    3  A    between atoms: C_5  and  C_6
    4  A    between atoms: C_6  and  C_7
    5  A    between atoms: C_7  and  C_8
    6  A    between atoms: C_8  and  C_10
    7  A    between atoms: C_10  and  C_11
    8  A    between atoms: C_11  and  C_12
    9  A    between atoms: C_12  and  C_13
   10  A    between atoms: C_13  and  C_14
   11  A    between atoms: C_17  and  O_18
   12  A    between atoms: C_23  and  O_24
                            x       y       z     vdW  Elec       q    Type
                         _______ _______ _______ _____ _____    ______ ____

>  <TORSDO>
F 11

>  <SCORE>
-7.133

>  <RMSD_LB>
0.000

>  <RMSD_UB>
0.000

$$$$
CHEMBL1270259
 OpenBabel10162523463D

 26 27  0  0  0  0  0  0  0  0999 V2000
  139.2190  138.8560  154.2480 C   0  0  0  0  0  0  0  0  0  0  0  0
  140.1720  139.2100  154.9450 O   0  0  0  0  0  0  0  0  0  0  0  0
  137.9440  138.3090  154.8580 C   0  0  0  0  0  2  0  0  0  0  0  0
  138.2410  137.1200  155.7660 C   0  0  0  0  0  2  0  0  0  0  0  0
  135.4880  135.3080  157.6980 C   0  0  0  0  0  0  0  0  0  0  0  0
  136.6280  136.0660  157.4050 C   0  0  0  0  0  3  0  0  0  0  0  0
  137.0010  136.3180  156.0740 C   0  0  0  0  0  0  0  0  0  0  0  0
  136.2090  135.8210  155.0320 C   0  0  0  0  0  3  0  0  0  0  0  0
  135.0720  135.0630  155.3110 C   0  0  0  0  0  3  0  0  0  0  0  0
  134.7210  134.8090  156.6360 C   0  0  0  0  0  0  0  0  0  0  0  0
  134.9060  136.0770  159.8780 C   0  0  0  0  0  1  0  0  0  0  0  0
  135.0500  135.0040  158.9590 O   0  0  0  0  0  0  0  0  0  0  0  0
  133.6090  134.0560  156.9090 O   0  0  0  0  0  0  0  0  0  0  0  0
  132.7830  134.4750  157.0550 H   0  0  0  0  0  0  0  0  0  0  0  0
  139.2590  138.9470  152.7340 C   0  0  0  0  0  2  0  0  0  0  0  0
  139.9850  137.7570  152.1130 C   0  0  0  0  0  2  0  0  0  0  0  0
  139.1660  137.1400  150.9800 C   0  0  0  0  0  2  0  0  0  0  0  0
  137.6980  137.5570  151.0750 C   0  0  0  0  0  2  0  0  0  0  0  0
  136.7720  136.4260  150.7040 C   0  0  0  0  0  0  0  0  0  0  0  0
  136.1680  136.3920  149.4390 C   0  0  0  0  0  3  0  0  0  0  0  0
  135.3120  135.3460  149.0890 C   0  0  0  0  0  3  0  0  0  0  0  0
  135.0570  134.3350  150.0100 C   0  0  0  0  0  0  0  0  0  0  0  0
  135.6350  134.3600  151.2720 C   0  0  0  0  0  3  0  0  0  0  0  0
  136.4900  135.4060  151.6210 C   0  0  0  0  0  3  0  0  0  0  0  0
  134.2350  133.2900  149.7060 O   0  0  0  0  0  0  0  0  0  0  0  0
  134.5720  132.5480  149.2450 H   0  0  0  0  0  0  0  0  0  0  0  0
  1  3  1  0  0  0  0
  1  2  2  0  0  0  0
  3  4  1  0  0  0  0
  4  7  1  0  0  0  0
  5 12  1  0  0  0  0
  6  5  1  0  0  0  0
  7  6  2  0  0  0  0
  8  9  2  0  0  0  0
  8  7  1  0  0  0  0
  9 10  1  0  0  0  0
 10 13  1  0  0  0  0
 10  5  2  0  0  0  0
 12 11  1  0  0  0  0
 13 14  1  0  0  0  0
 15  1  1  0  0  0  0
 16 15  1  0  0  0  0
 17 18  1  0  0  0  0
 17 16  1  0  0  0  0
 19 18  1  0  0  0  0
 19 24  1  0  0  0  0
 20 19  2  0  0  0  0
 21 20  1  0  0  0  0
 21 22  2  0  0  0  0
 22 23  1  0  0  0  0
 23 24  2  0  0  0  0
 25 22  1  0  0  0  0
 26 25  1  0  0  0  0
M  END
>  <MODEL>
2

>  <REMARK>
 VINA RESULT:    -7.032      8.077     11.443
 INTER + INTRA:         -11.820
 INTER:                 -10.390
 INTRA:                  -1.430
 UNBOUND:                -0.678
  Name = CHEMBL1270259
  12 active torsions:
  status: ('A' for Active; 'I' for Inactive)
    1  A    between atoms: C_1  and  O_2
    2  A    between atoms: O_2  and  C_3
    3  A    between atoms: C_5  and  C_6
    4  A    between atoms: C_6  and  C_7
    5  A    between atoms: C_7  and  C_8
    6  A    between atoms: C_8  and  C_10
    7  A    between atoms: C_10  and  C_11
    8  A    between atoms: C_11  and  C_12
    9  A    between atoms: C_12  and  C_13
   10  A    between atoms: C_13  and  C_14
   11  A    between atoms: C_17  and  O_18
   12  A    between atoms: C_23  and  O_24
                            x       y       z     vdW  Elec       q    Type
                         _______ _______ _______ _____ _____    ______ ____

>  <TORSDO>
F 11

>  <SCORE>
-7.032

>  <RMSD_LB>
8.077

>  <RMSD_UB>
11.443

$$$$
CHEMBL1270259
 OpenBabel10162523463D

 26 27  0  0  0  0  0  0  0  0999 V2000
  139.6140  138.5730  154.2290 C   0  0  0  0  0  0  0  0  0  0  0  0
  140.1390  139.2400  155.1230 O   0  0  0  0  0  0  0  0  0  0  0  0
  138.5270  137.5600  154.5240 C   0  0  0  0  0  2  0  0  0  0  0  0
  137.5680  137.4300  153.3450 C   0  0  0  0  0  2  0  0  0  0  0  0
  135.2170  134.9180  155.0040 C   0  0  0  0  0  0  0  0  0  0  0  0
  136.1180  135.9730  154.8190 C   0  0  0  0  0  3  0  0  0  0  0  0
  136.5840  136.3040  153.5350 C   0  0  0  0  0  0  0  0  0  0  0  0
  136.1230  135.5800  152.4290 C   0  0  0  0  0  3  0  0  0  0  0  0
  135.2270  134.5250  152.6010 C   0  0  0  0  0  3  0  0  0  0  0  0
  134.7830  134.1990  153.8820 C   0  0  0  0  0  0  0  0  0  0  0  0
  135.2710  135.1060  157.3800 C   0  0  0  0  0  1  0  0  0  0  0  0
  134.7150  134.5170  156.2140 O   0  0  0  0  0  0  0  0  0  0  0  0
  133.9100  133.1570  154.0510 O   0  0  0  0  0  0  0  0  0  0  0  0
  132.9870  133.3160  154.0650 H   0  0  0  0  0  0  0  0  0  0  0  0
  140.0220  138.7230  152.7750 C   0  0  0  0  0  2  0  0  0  0  0  0
  140.8560  137.5390  152.2950 C   0  0  0  0  0  2  0  0  0  0  0  0
  140.6710  137.3050  150.7960 C   0  0  0  0  0  2  0  0  0  0  0  0
  139.4870  138.1110  150.2570 C   0  0  0  0  0  2  0  0  0  0  0  0
  138.3940  137.2130  149.7330 C   0  0  0  0  0  0  0  0  0  0  0  0
  137.1230  137.7340  149.4560 C   0  0  0  0  0  3  0  0  0  0  0  0
  136.1080  136.9090  148.9680 C   0  0  0  0  0  3  0  0  0  0  0  0
  136.3660  135.5570  148.7640 C   0  0  0  0  0  0  0  0  0  0  0  0
  137.6150  135.0200  149.0470 C   0  0  0  0  0  3  0  0  0  0  0  0
  138.6290  135.8460  149.5340 C   0  0  0  0  0  3  0  0  0  0  0  0
  135.4070  134.7170  148.2810 O   0  0  0  0  0  0  0  0  0  0  0  0
  134.5670  135.0540  148.0400 H   0  0  0  0  0  0  0  0  0  0  0  0
  1  3  1  0  0  0  0
  1  2  2  0  0  0  0
  4  7  1  0  0  0  0
  4  3  1  0  0  0  0
  5 12  1  0  0  0  0
  6  5  1  0  0  0  0
  7  6  2  0  0  0  0
  8  9  2  0  0  0  0
  8  7  1  0  0  0  0
  9 10  1  0  0  0  0
 10 13  1  0  0  0  0
 10  5  2  0  0  0  0
 12 11  1  0  0  0  0
 13 14  1  0  0  0  0
 15  1  1  0  0  0  0
 16 15  1  0  0  0  0
 17 16  1  0  0  0  0
 18 17  1  0  0  0  0
 19 18  1  0  0  0  0
 20 19  2  0  0  0  0
 21 20  1  0  0  0  0
 22 21  2  0  0  0  0
 22 23  1  0  0  0  0
 23 24  2  0  0  0  0
 24 19  1  0  0  0  0
 25 22  1  0  0  0  0
 26 25  1  0  0  0  0
M  END
>  <MODEL>
3

>  <REMARK>
 VINA RESULT:    -6.899      7.294     10.911
 INTER + INTRA:         -11.610
 INTER:                  -9.447
 INTRA:                  -2.164
 UNBOUND:                -0.678
  Name = CHEMBL1270259
  12 active torsions:
  status: ('A' for Active; 'I' for Inactive)
    1  A    between atoms: C_1  and  O_2
    2  A    between atoms: O_2  and  C_3
    3  A    between atoms: C_5  and  C_6
    4  A    between atoms: C_6  and  C_7
    5  A    between atoms: C_7  and  C_8
    6  A    between atoms: C_8  and  C_10
    7  A    between atoms: C_10  and  C_11
    8  A    between atoms: C_11  and  C_12
    9  A    between atoms: C_12  and  C_13
   10  A    between atoms: C_13  and  C_14
   11  A    between atoms: C_17  and  O_18
   12  A    between atoms: C_23  and  O_24
                            x       y       z     vdW  Elec       q    Type
                         _______ _______ _______ _____ _____    ______ ____

>  <TORSDO>
F 11

>  <SCORE>
-6.899

>  <RMSD_LB>
7.294

>  <RMSD_UB>
10.911

$$$$
CHEMBL1270259
 OpenBabel10162523463D

 26 27  0  0  0  0  0  0  0  0999 V2000
  143.8590  137.1410  149.9310 C   0  0  0  0  0  0  0  0  0  0  0  0
  142.7090  137.5670  150.0510 O   0  0  0  0  0  0  0  0  0  0  0  0
  144.6240  136.5630  151.1060 C   0  0  0  0  0  2  0  0  0  0  0  0
  146.1110  136.8800  150.9980 C   0  0  0  0  0  2  0  0  0  0  0  0
  146.1680  138.8540  154.2680 C   0  0  0  0  0  0  0  0  0  0  0  0
  145.7310  138.0540  153.2060 C   0  0  0  0  0  3  0  0  0  0  0  0
  146.5950  137.7280  152.1480 C   0  0  0  0  0  0  0  0  0  0  0  0
  147.9150  138.1930  152.1700 C   0  0  0  0  0  3  0  0  0  0  0  0
  148.3630  138.9930  153.2220 C   0  0  0  0  0  3  0  0  0  0  0  0
  147.4900  139.3200  154.2590 C   0  0  0  0  0  0  0  0  0  0  0  0
  144.0350  139.5370  155.0850 C   0  0  0  0  0  1  0  0  0  0  0  0
  145.3990  139.2310  155.3370 O   0  0  0  0  0  0  0  0  0  0  0  0
  147.9270  140.1130  155.2870 O   0  0  0  0  0  0  0  0  0  0  0  0
  148.5700  140.7760  155.1260 H   0  0  0  0  0  0  0  0  0  0  0  0
  144.5860  137.1670  148.5990 C   0  0  0  0  0  2  0  0  0  0  0  0
  144.7420  138.5880  148.0650 C   0  0  0  0  0  2  0  0  0  0  0  0
  146.1950  139.0550  148.1520 C   0  0  0  0  0  2  0  0  0  0  0  0
  146.2770  140.5790  148.2550 C   0  0  0  0  0  2  0  0  0  0  0  0
  146.1460  141.0490  149.6810 C   0  0  0  0  0  0  0  0  0  0  0  0
  144.9680  140.8080  150.4010 C   0  0  0  0  0  3  0  0  0  0  0  0
  144.8420  141.2390  151.7230 C   0  0  0  0  0  3  0  0  0  0  0  0
  145.8980  141.9180  152.3230 C   0  0  0  0  0  0  0  0  0  0  0  0
  147.0670  142.1790  151.6210 C   0  0  0  0  0  3  0  0  0  0  0  0
  147.1920  141.7480  150.3000 C   0  0  0  0  0  3  0  0  0  0  0  0
  145.8210  142.3480  153.6150 O   0  0  0  0  0  0  0  0  0  0  0  0
  145.2070  141.9560  154.2040 H   0  0  0  0  0  0  0  0  0  0  0  0
  1  2  2  0  0  0  0
  1  3  1  0  0  0  0
  4  3  1  0  0  0  0
  4  7  1  0  0  0  0
  5 12  1  0  0  0  0
  6  5  2  0  0  0  0
  7  8  2  0  0  0  0
  7  6  1  0  0  0  0
  8  9  1  0  0  0  0
  9 10  2  0  0  0  0
 10  5  1  0  0  0  0
 10 13  1  0  0  0  0
 11 12  1  0  0  0  0
 14 13  1  0  0  0  0
 15  1  1  0  0  0  0
 16 17  1  0  0  0  0
 16 15  1  0  0  0  0
 17 18  1  0  0  0  0
 18 19  1  0  0  0  0
 19 24  2  0  0  0  0
 19 20  1  0  0  0  0
 20 21  2  0  0  0  0
 21 22  1  0  0  0  0
 22 25  1  0  0  0  0
 23 22  2  0  0  0  0
 24 23  1  0  0  0  0
 25 26  1  0  0  0  0
M  END
>  <MODEL>
4

>  <REMARK>
 VINA RESULT:    -6.765      1.611      4.047
 INTER + INTRA:         -11.397
 INTER:                  -8.722
 INTRA:                  -2.676
 UNBOUND:                -0.678
  Name = CHEMBL1270259
  12 active torsions:
  status: ('A' for Active; 'I' for Inactive)
    1  A    between atoms: C_1  and  O_2
    2  A    between atoms: O_2  and  C_3
    3  A    between atoms: C_5  and  C_6
    4  A    between atoms: C_6  and  C_7
    5  A    between atoms: C_7  and  C_8
    6  A    between atoms: C_8  and  C_10
    7  A    between atoms: C_10  and  C_11
    8  A    between atoms: C_11  and  C_12
    9  A    between atoms: C_12  and  C_13
   10  A    between atoms: C_13  and  C_14
   11  A    between atoms: C_17  and  O_18
   12  A    between atoms: C_23  and  O_24
                            x       y       z     vdW  Elec       q    Type
                         _______ _______ _______ _____ _____    ______ ____

>  <TORSDO>
F 11

>  <SCORE>
-6.765

>  <RMSD_LB>
1.611

>  <RMSD_UB>
4.047

$$$$
CHEMBL1270259
 OpenBabel10162523463D

 26 27  0  0  0  0  0  0  0  0999 V2000
  145.2610  136.3760  151.1430 C   0  0  0  0  0  0  0  0  0  0  0  0
  146.2570  135.8130  151.6020 O   0  0  0  0  0  0  0  0  0  0  0  0
  144.8260  136.1830  149.7040 C   0  0  0  0  0  2  0  0  0  0  0  0
  145.9610  136.5160  148.7420 C   0  0  0  0  0  2  0  0  0  0  0  0
  144.2710  139.3010  146.7480 C   0  0  0  0  0  0  0  0  0  0  0  0
  144.4860  138.0990  147.4320 C   0  0  0  0  0  3  0  0  0  0  0  0
  145.7300  137.8210  148.0230 C   0  0  0  0  0  0  0  0  0  0  0  0
  146.7560  138.7700  147.9430 C   0  0  0  0  0  3  0  0  0  0  0  0
  146.5550  139.9710  147.2630 C   0  0  0  0  0  3  0  0  0  0  0  0
  145.3190  140.2280  146.6690 C   0  0  0  0  0  0  0  0  0  0  0  0
  142.2660  138.6090  145.6590 C   0  0  0  0  0  1  0  0  0  0  0  0
  143.0990  139.6560  146.1350 O   0  0  0  0  0  0  0  0  0  0  0  0
  145.1250  141.4030  145.9930 O   0  0  0  0  0  0  0  0  0  0  0  0
  145.8610  141.9030  145.6990 H   0  0  0  0  0  0  0  0  0  0  0  0
  144.4050  137.3000  151.9900 C   0  0  0  0  0  2  0  0  0  0  0  0
  144.2640  138.6810  151.3570 C   0  0  0  0  0  2  0  0  0  0  0  0
  145.6270  139.3510  151.1830 C   0  0  0  0  0  2  0  0  0  0  0  0
  145.5840  140.8100  151.6410 C   0  0  0  0  0  2  0  0  0  0  0  0
  146.9540  141.3160  152.0140 C   0  0  0  0  0  0  0  0  0  0  0  0
  147.4310  141.1680  153.3240 C   0  0  0  0  0  3  0  0  0  0  0  0
  148.7000  141.6330  153.6750 C   0  0  0  0  0  3  0  0  0  0  0  0
  149.4900  142.2530  152.7120 C   0  0  0  0  0  0  0  0  0  0  0  0
  149.0280  142.4230  151.4140 C   0  0  0  0  0  3  0  0  0  0  0  0
  147.7600  141.9570  151.0640 C   0  0  0  0  0  3  0  0  0  0  0  0
  150.7390  142.7150  153.0090 O   0  0  0  0  0  0  0  0  0  0  0  0
  151.1990  142.3750  153.7510 H   0  0  0  0  0  0  0  0  0  0  0  0
  1  2  2  0  0  0  0
  1 15  1  0  0  0  0
  3  1  1  0  0  0  0
  4  3  1  0  0  0  0
  5  6  1  0  0  0  0
  6  7  2  0  0  0  0
  7  4  1  0  0  0  0
  8  7  1  0  0  0  0
  9  8  2  0  0  0  0
 10  5  2  0  0  0  0
 10  9  1  0  0  0  0
 11 12  1  0  0  0  0
 12  5  1  0  0  0  0
 13 10  1  0  0  0  0
 14 13  1  0  0  0  0
 16 15  1  0  0  0  0
 17 16  1  0  0  0  0
 17 18  1  0  0  0  0
 18 19  1  0  0  0  0
 19 20  1  0  0  0  0
 20 21  2  0  0  0  0
 22 25  1  0  0  0  0
 22 21  1  0  0  0  0
 23 22  2  0  0  0  0
 24 23  1  0  0  0  0
 24 19  2  0  0  0  0
 25 26  1  0  0  0  0
M  END
>  <MODEL>
5

>  <REMARK>
 VINA RESULT:    -5.854      2.475      5.812
 INTER + INTRA:          -9.954
 INTER:                  -8.391
 INTRA:                  -1.564
 UNBOUND:                -0.678
  Name = CHEMBL1270259
  12 active torsions:
  status: ('A' for Active; 'I' for Inactive)
    1  A    between atoms: C_1  and  O_2
    2  A    between atoms: O_2  and  C_3
    3  A    between atoms: C_5  and  C_6
    4  A    between atoms: C_6  and  C_7
    5  A    between atoms: C_7  and  C_8
    6  A    between atoms: C_8  and  C_10
    7  A    between atoms: C_10  and  C_11
    8  A    between atoms: C_11  and  C_12
    9  A    between atoms: C_12  and  C_13
   10  A    between atoms: C_13  and  C_14
   11  A    between atoms: C_17  and  O_18
   12  A    between atoms: C_23  and  O_24
                            x       y       z     vdW  Elec       q    Type
                         _______ _______ _______ _____ _____    ______ ____

>  <TORSDO>
F 11

>  <SCORE>
-5.854

>  <RMSD_LB>
2.475

>  <RMSD_UB>
5.812

$$$$
CHEMBL1270259
 OpenBabel10162523463D

 26 27  0  0  0  0  0  0  0  0999 V2000
  143.9410  136.2210  145.6110 C   0  0  0  0  0  0  0  0  0  0  0  0
  143.6810  135.5000  144.6460 O   0  0  0  0  0  0  0  0  0  0  0  0
  142.8710  136.6560  146.5930 C   0  0  0  0  0  2  0  0  0  0  0  0
  142.6290  135.5800  147.6470 C   0  0  0  0  0  2  0  0  0  0  0  0
  141.7460  137.0400  151.0640 C   0  0  0  0  0  0  0  0  0  0  0  0
  141.6270  136.5230  149.7690 C   0  0  0  0  0  3  0  0  0  0  0  0
  142.7630  136.1190  149.0490 C   0  0  0  0  0  0  0  0  0  0  0  0
  144.0260  136.2170  149.6460 C   0  0  0  0  0  3  0  0  0  0  0  0
  144.1580  136.7320  150.9350 C   0  0  0  0  0  3  0  0  0  0  0  0
  143.0230  137.1420  151.6340 C   0  0  0  0  0  0  0  0  0  0  0  0
  140.0420  138.6620  151.4490 C   0  0  0  0  0  1  0  0  0  0  0  0
  140.7000  137.4660  151.8390 O   0  0  0  0  0  0  0  0  0  0  0  0
  143.1540  137.6560  152.8960 O   0  0  0  0  0  0  0  0  0  0  0  0
  143.9990  137.9080  153.2150 H   0  0  0  0  0  0  0  0  0  0  0  0
  145.3480  136.7200  145.8790 C   0  0  0  0  0  2  0  0  0  0  0  0
  145.3460  138.0770  146.5770 C   0  0  0  0  0  2  0  0  0  0  0  0
  146.4540  138.1610  147.6260 C   0  0  0  0  0  2  0  0  0  0  0  0
  146.6570  139.6030  148.0960 C   0  0  0  0  0  2  0  0  0  0  0  0
  146.0810  139.8280  149.4700 C   0  0  0  0  0  0  0  0  0  0  0  0
  144.7820  140.3320  149.6180 C   0  0  0  0  0  3  0  0  0  0  0  0
  144.2410  140.5410  150.8890 C   0  0  0  0  0  3  0  0  0  0  0  0
  145.0070  140.2480  152.0130 C   0  0  0  0  0  0  0  0  0  0  0  0
  146.3020  139.7630  151.8860 C   0  0  0  0  0  3  0  0  0  0  0  0
  146.8410  139.5540  150.6150 C   0  0  0  0  0  3  0  0  0  0  0  0
  144.5160  140.4290  153.2730 O   0  0  0  0  0  0  0  0  0  0  0  0
  144.2470  139.6890  153.7810 H   0  0  0  0  0  0  0  0  0  0  0  0
  1 15  1  0  0  0  0
  1  3  1  0  0  0  0
  2  1  2  0  0  0  0
  3  4  1  0  0  0  0
  4  7  1  0  0  0  0
  5 10  1  0  0  0  0
  5 12  1  0  0  0  0
  6  5  2  0  0  0  0
  7  8  2  0  0  0  0
  7  6  1  0  0  0  0
  8  9  1  0  0  0  0
  9 10  2  0  0  0  0
 10 13  1  0  0  0  0
 11 12  1  0  0  0  0
 13 14  1  0  0  0  0
 15 16  1  0  0  0  0
 16 17  1  0  0  0  0
 17 18  1  0  0  0  0
 18 19  1  0  0  0  0
 19 20  2  0  0  0  0
 19 24  1  0  0  0  0
 20 21  1  0  0  0  0
 21 22  2  0  0  0  0
 22 25  1  0  0  0  0
 23 22  1  0  0  0  0
 24 23  2  0  0  0  0
 25 26  1  0  0  0  0
M  END
>  <MODEL>
6

>  <REMARK>
 VINA RESULT:    -5.682      2.836      5.676
 INTER + INTRA:          -9.682
 INTER:                  -7.209
 INTRA:                  -2.472
 UNBOUND:                -0.678
  Name = CHEMBL1270259
  12 active torsions:
  status: ('A' for Active; 'I' for Inactive)
    1  A    between atoms: C_1  and  O_2
    2  A    between atoms: O_2  and  C_3
    3  A    between atoms: C_5  and  C_6
    4  A    between atoms: C_6  and  C_7
    5  A    between atoms: C_7  and  C_8
    6  A    between atoms: C_8  and  C_10
    7  A    between atoms: C_10  and  C_11
    8  A    between atoms: C_11  and  C_12
    9  A    between atoms: C_12  and  C_13
   10  A    between atoms: C_13  and  C_14
   11  A    between atoms: C_17  and  O_18
   12  A    between atoms: C_23  and  O_24
                            x       y       z     vdW  Elec       q    Type
                         _______ _______ _______ _____ _____    ______ ____

>  <TORSDO>
F 11

>  <SCORE>
-5.682

>  <RMSD_LB>
2.836

>  <RMSD_UB>
5.676

$$$$
CHEMBL1270259
 OpenBabel10162523463D

 26 27  0  0  0  0  0  0  0  0999 V2000
  143.3250  135.5130  147.9850 C   0  0  0  0  0  0  0  0  0  0  0  0
  143.8150  135.1040  146.9320 O   0  0  0  0  0  0  0  0  0  0  0  0
  142.0460  136.3270  148.0070 C   0  0  0  0  0  2  0  0  0  0  0  0
  142.3340  137.7870  148.3360 C   0  0  0  0  0  2  0  0  0  0  0  0
  139.6140  139.6290  150.2850 C   0  0  0  0  0  0  0  0  0  0  0  0
  140.3970  139.1450  149.2300 C   0  0  0  0  0  3  0  0  0  0  0  0
  141.4850  138.2910  149.4760 C   0  0  0  0  0  0  0  0  0  0  0  0
  141.7730  137.9060  150.7910 C   0  0  0  0  0  3  0  0  0  0  0  0
  141.0020  138.3830  151.8500 C   0  0  0  0  0  3  0  0  0  0  0  0
  139.9330  139.2410  151.5940 C   0  0  0  0  0  0  0  0  0  0  0  0
  137.8380  140.4340  148.9130 C   0  0  0  0  0  1  0  0  0  0  0  0
  138.5420  140.4710  150.1460 O   0  0  0  0  0  0  0  0  0  0  0  0
  139.1820  139.7170  152.6360 O   0  0  0  0  0  0  0  0  0  0  0  0
  138.8650  140.5990  152.6200 H   0  0  0  0  0  0  0  0  0  0  0  0
  143.9680  135.2300  149.3300 C   0  0  0  0  0  2  0  0  0  0  0  0
  145.0240  136.2730  149.6850 C   0  0  0  0  0  2  0  0  0  0  0  0
  145.8860  135.8090  150.8590 C   0  0  0  0  0  2  0  0  0  0  0  0
  146.9710  136.8370  151.1830 C   0  0  0  0  0  2  0  0  0  0  0  0
  146.8100  137.3990  152.5720 C   0  0  0  0  0  0  0  0  0  0  0  0
  145.5770  137.9270  152.9830 C   0  0  0  0  0  3  0  0  0  0  0  0
  145.4200  138.4470  154.2690 C   0  0  0  0  0  3  0  0  0  0  0  0
  146.5020  138.4430  155.1430 C   0  0  0  0  0  0  0  0  0  0  0  0
  147.7350  137.9390  154.7490 C   0  0  0  0  0  3  0  0  0  0  0  0
  147.8900  137.4190  153.4640 C   0  0  0  0  0  3  0  0  0  0  0  0
  146.3910  138.9330  156.4110 O   0  0  0  0  0  0  0  0  0  0  0  0
  146.1150  138.3710  157.1080 H   0  0  0  0  0  0  0  0  0  0  0  0
  1  3  1  0  0  0  0
  1 15  1  0  0  0  0
  2  1  2  0  0  0  0
  3  4  1  0  0  0  0
  4  7  1  0  0  0  0
  5 10  1  0  0  0  0
  6  7  1  0  0  0  0
  6  5  2  0  0  0  0
  7  8  2  0  0  0  0
  8  9  1  0  0  0  0
 10  9  2  0  0  0  0
 10 13  1  0  0  0  0
 11 12  1  0  0  0  0
 12  5  1  0  0  0  0
 14 13  1  0  0  0  0
 15 16  1  0  0  0  0
 16 17  1  0  0  0  0
 17 18  1  0  0  0  0
 18 19  1  0  0  0  0
 19 20  2  0  0  0  0
 19 24  1  0  0  0  0
 20 21  1  0  0  0  0
 21 22  2  0  0  0  0
 22 25  1  0  0  0  0
 23 22  1  0  0  0  0
 24 23  2  0  0  0  0
 25 26  1  0  0  0  0
M  END
>  <MODEL>
7

>  <REMARK>
 VINA RESULT:    -5.579      3.365      5.827
 INTER + INTRA:          -9.518
 INTER:                  -8.446
 INTRA:                  -1.072
 UNBOUND:                -0.678
  Name = CHEMBL1270259
  12 active torsions:
  status: ('A' for Active; 'I' for Inactive)
    1  A    between atoms: C_1  and  O_2
    2  A    between atoms: O_2  and  C_3
    3  A    between atoms: C_5  and  C_6
    4  A    between atoms: C_6  and  C_7
    5  A    between atoms: C_7  and  C_8
    6  A    between atoms: C_8  and  C_10
    7  A    between atoms: C_10  and  C_11
    8  A    between atoms: C_11  and  C_12
    9  A    between atoms: C_12  and  C_13
   10  A    between atoms: C_13  and  C_14
   11  A    between atoms: C_17  and  O_18
   12  A    between atoms: C_23  and  O_24
                            x       y       z     vdW  Elec       q    Type
                         _______ _______ _______ _____ _____    ______ ____

>  <TORSDO>
F 11

>  <SCORE>
-5.579

>  <RMSD_LB>
3.365

>  <RMSD_UB>
5.827

$$$$
CHEMBL1270259
 OpenBabel10162523463D

 26 27  0  0  0  0  0  0  0  0999 V2000
  138.8160  134.3020  136.1930 C   0  0  0  0  0  0  0  0  0  0  0  0
  139.8200  135.0170  136.1990 O   0  0  0  0  0  0  0  0  0  0  0  0
  137.9230  134.1890  134.9740 C   0  0  0  0  0  2  0  0  0  0  0  0
  138.7480  133.9640  133.7120 C   0  0  0  0  0  2  0  0  0  0  0  0
  136.0010  132.8600  131.2990 C   0  0  0  0  0  0  0  0  0  0  0  0
  136.7160  133.5940  132.2520 C   0  0  0  0  0  3  0  0  0  0  0  0
  137.9910  133.1780  132.6710 C   0  0  0  0  0  0  0  0  0  0  0  0
  138.5570  132.0270  132.1100 C   0  0  0  0  0  3  0  0  0  0  0  0
  137.8540  131.2860  131.1610 C   0  0  0  0  0  3  0  0  0  0  0  0
  136.5840  131.7020  130.7640 C   0  0  0  0  0  0  0  0  0  0  0  0
  133.9940  134.1140  131.5900 C   0  0  0  0  0  1  0  0  0  0  0  0
  134.7520  133.1800  130.8350 O   0  0  0  0  0  0  0  0  0  0  0  0
  135.8890  130.9680  129.8390 O   0  0  0  0  0  0  0  0  0  0  0  0
  135.6110  130.0970  130.0450 H   0  0  0  0  0  0  0  0  0  0  0  0
  138.4090  133.4860  137.4060 C   0  0  0  0  0  2  0  0  0  0  0  0
  139.3830  133.6700  138.5670 C   0  0  0  0  0  2  0  0  0  0  0  0
  138.8500  133.0220  139.8440 C   0  0  0  0  0  2  0  0  0  0  0  0
  137.7700  133.8920  140.4900 C   0  0  0  0  0  2  0  0  0  0  0  0
  137.2720  133.2940  141.7820 C   0  0  0  0  0  0  0  0  0  0  0  0
  136.5140  134.0670  142.6720 C   0  0  0  0  0  3  0  0  0  0  0  0
  136.0480  133.5180  143.8690 C   0  0  0  0  0  3  0  0  0  0  0  0
  136.3480  132.1950  144.1760 C   0  0  0  0  0  0  0  0  0  0  0  0
  137.1110  131.4190  143.3130 C   0  0  0  0  0  3  0  0  0  0  0  0
  137.5760  131.9690  142.1170 C   0  0  0  0  0  3  0  0  0  0  0  0
  135.9060  131.6160  145.3290 O   0  0  0  0  0  0  0  0  0  0  0  0
  135.6020  130.7300  145.3220 H   0  0  0  0  0  0  0  0  0  0  0  0
  1  2  2  0  0  0  0
  1 15  1  0  0  0  0
  3  1  1  0  0  0  0
  4  3  1  0  0  0  0
  5  6  1  0  0  0  0
  6  7  2  0  0  0  0
  7  4  1  0  0  0  0
  8  7  1  0  0  0  0
  9  8  2  0  0  0  0
 10  9  1  0  0  0  0
 10  5  2  0  0  0  0
 12  5  1  0  0  0  0
 12 11  1  0  0  0  0
 13 14  1  0  0  0  0
 13 10  1  0  0  0  0
 15 16  1  0  0  0  0
 16 17  1  0  0  0  0
 17 18  1  0  0  0  0
 18 19  1  0  0  0  0
 19 24  2  0  0  0  0
 19 20  1  0  0  0  0
 20 21  2  0  0  0  0
 21 22  1  0  0  0  0
 22 25  1  0  0  0  0
 23 22  2  0  0  0  0
 24 23  1  0  0  0  0
 26 25  1  0  0  0  0
M  END
>  <MODEL>
8

>  <REMARK>
 VINA RESULT:    -5.295     16.023     19.633
 INTER + INTRA:          -9.069
 INTER:                  -8.503
 INTRA:                  -0.565
 UNBOUND:                -0.678
  Name = CHEMBL1270259
  12 active torsions:
  status: ('A' for Active; 'I' for Inactive)
    1  A    between atoms: C_1  and  O_2
    2  A    between atoms: O_2  and  C_3
    3  A    between atoms: C_5  and  C_6
    4  A    between atoms: C_6  and  C_7
    5  A    between atoms: C_7  and  C_8
    6  A    between atoms: C_8  and  C_10
    7  A    between atoms: C_10  and  C_11
    8  A    between atoms: C_11  and  C_12
    9  A    between atoms: C_12  and  C_13
   10  A    between atoms: C_13  and  C_14
   11  A    between atoms: C_17  and  O_18
   12  A    between atoms: C_23  and  O_24
                            x       y       z     vdW  Elec       q    Type
                         _______ _______ _______ _____ _____    ______ ____

>  <TORSDO>
F 11

>  <SCORE>
-5.295

>  <RMSD_LB>
16.023

>  <RMSD_UB>
19.633

$$$$
CHEMBL1270259
 OpenBabel10162523463D

 26 27  0  0  0  0  0  0  0  0999 V2000
  143.0920  135.6610  148.0280 C   0  0  0  0  0  0  0  0  0  0  0  0
  143.4030  135.2140  146.9220 O   0  0  0  0  0  0  0  0  0  0  0  0
  141.9670  136.6630  148.1960 C   0  0  0  0  0  2  0  0  0  0  0  0
  141.0500  136.2660  149.3470 C   0  0  0  0  0  2  0  0  0  0  0  0
  137.5070  137.5000  148.6300 C   0  0  0  0  0  0  0  0  0  0  0  0
  138.8610  137.4800  148.9850 C   0  0  0  0  0  3  0  0  0  0  0  0
  139.5960  136.2830  148.9470 C   0  0  0  0  0  0  0  0  0  0  0  0
  138.9690  135.1040  148.5280 C   0  0  0  0  0  3  0  0  0  0  0  0
  137.6200  135.1110  148.1740 C   0  0  0  0  0  3  0  0  0  0  0  0
  136.8980  136.3020  148.2290 C   0  0  0  0  0  0  0  0  0  0  0  0
  137.3480  139.8760  148.7490 C   0  0  0  0  0  1  0  0  0  0  0  0
  136.7080  138.6120  148.6440 O   0  0  0  0  0  0  0  0  0  0  0  0
  135.5710  136.3070  147.8910 O   0  0  0  0  0  0  0  0  0  0  0  0
  134.9670  136.8410  148.3680 H   0  0  0  0  0  0  0  0  0  0  0  0
  143.8140  135.2360  149.2940 C   0  0  0  0  0  2  0  0  0  0  0  0
  144.6290  136.3790  149.8930 C   0  0  0  0  0  2  0  0  0  0  0  0
  145.7680  135.8480  150.7620 C   0  0  0  0  0  2  0  0  0  0  0  0
  146.8530  136.9100  150.9540 C   0  0  0  0  0  2  0  0  0  0  0  0
  146.8790  137.4310  152.3680 C   0  0  0  0  0  0  0  0  0  0  0  0
  145.6840  137.7530  153.0250 C   0  0  0  0  0  3  0  0  0  0  0  0
  145.7010  138.2340  154.3360 C   0  0  0  0  0  3  0  0  0  0  0  0
  146.9200  138.3970  154.9870 C   0  0  0  0  0  0  0  0  0  0  0  0
  148.1150  138.0980  154.3460 C   0  0  0  0  0  3  0  0  0  0  0  0
  148.0960  137.6170  153.0360 C   0  0  0  0  0  3  0  0  0  0  0  0
  146.9840  138.8550  156.2700 O   0  0  0  0  0  0  0  0  0  0  0  0
  147.0210  138.2490  156.9830 H   0  0  0  0  0  0  0  0  0  0  0  0
  1  3  1  0  0  0  0
  1 15  1  0  0  0  0
  2  1  2  0  0  0  0
  3  4  1  0  0  0  0
  5 12  1  0  0  0  0
  5  6  1  0  0  0  0
  7  6  2  0  0  0  0
  7  4  1  0  0  0  0
  8  7  1  0  0  0  0
  9 10  1  0  0  0  0
  9  8  2  0  0  0  0
 10  5  2  0  0  0  0
 12 11  1  0  0  0  0
 13 10  1  0  0  0  0
 13 14  1  0  0  0  0
 15 16  1  0  0  0  0
 16 17  1  0  0  0  0
 17 18  1  0  0  0  0
 18 19  1  0  0  0  0
 19 20  2  0  0  0  0
 19 24  1  0  0  0  0
 20 21  1  0  0  0  0
 21 22  2  0  0  0  0
 22 25  1  0  0  0  0
 23 22  1  0  0  0  0
 24 23  2  0  0  0  0
 25 26  1  0  0  0  0
M  END
>  <MODEL>
9

>  <REMARK>
 VINA RESULT:    -5.127      4.472      7.788
 INTER + INTRA:          -8.802
 INTER:                  -8.125
 INTRA:                  -0.678
 UNBOUND:                -0.678
  Name = CHEMBL1270259
  12 active torsions:
  status: ('A' for Active; 'I' for Inactive)
    1  A    between atoms: C_1  and  O_2
    2  A    between atoms: O_2  and  C_3
    3  A    between atoms: C_5  and  C_6
    4  A    between atoms: C_6  and  C_7
    5  A    between atoms: C_7  and  C_8
    6  A    between atoms: C_8  and  C_10
    7  A    between atoms: C_10  and  C_11
    8  A    between atoms: C_11  and  C_12
    9  A    between atoms: C_12  and  C_13
   10  A    between atoms: C_13  and  C_14
   11  A    between atoms: C_17  and  O_18
   12  A    between atoms: C_23  and  O_24
                            x       y       z     vdW  Elec       q    Type
                         _______ _______ _______ _____ _____    ______ ____

>  <TORSDO>
F 11

>  <SCORE>
-5.127

>  <RMSD_LB>
4.472

>  <RMSD_UB>
7.788

$$$$
