CHEMBL1161557
 OpenBabel10172500113D

 29 29  0  0  1  0  0  0  0  0999 V2000
  148.6350  139.8580  153.5000 N   0  0  0  0  0  0  0  0  0  0  0  0
  148.7740  141.2060  153.2330 C   0  0  0  0  0  0  0  0  0  0  0  0
  148.9760  142.0510  154.1030 O   0  0  0  0  0  0  0  0  0  0  0  0
  148.5580  139.2260  152.7500 H   0  0  0  0  0  0  0  0  0  0  0  0
  148.5990  139.3540  154.8580 C   0  0  0  0  0  2  0  0  0  0  0  0
  147.2120  138.8750  155.2950 C   0  0  0  0  0  2  0  0  0  0  0  0
  146.2220  139.7520  154.7330 O   0  0  0  0  0  0  0  0  0  0  0  0
  144.9970  139.1920  154.5230 C   0  0  0  0  0  0  0  0  0  0  0  0
  143.9400  139.6280  154.9620 O   0  0  0  0  0  0  0  0  0  0  0  0
  145.1580  137.8190  153.8420 C   0  0  1  0  0  3  0  0  0  0  0  0
  143.9550  137.0130  154.1820 N   0  0  0  0  0  4  0  0  0  0  0  0
  144.1200  136.0370  153.9360 H   0  0  0  0  0  0  0  0  0  0  0  0
  143.1530  137.3650  153.6600 H   0  0  0  0  0  0  0  0  0  0  0  0
  143.7690  137.0840  155.1820 H   0  0  0  0  0  0  0  0  0  0  0  0
  145.3110  137.9130  152.3070 C   0  0  1  0  0  3  0  0  0  0  0  0
  146.6030  137.2480  151.8130 C   0  0  0  0  0  1  0  0  0  0  0  0
  144.3990  136.5380  150.2960 C   0  0  0  0  0  1  0  0  0  0  0  0
  144.0830  137.3430  151.5520 C   0  0  0  0  0  2  0  0  0  0  0  0
  148.6500  141.5730  151.7640 C   0  0  0  0  0  2  0  0  0  0  0  0
  147.2810  141.2920  151.1970 C   0  0  0  0  0  0  0  0  0  0  0  0
  146.1360  141.8430  151.7830 C   0  0  0  0  0  3  0  0  0  0  0  0
  144.8740  141.5900  151.2440 C   0  0  0  0  0  3  0  0  0  0  0  0
  144.7370  140.7850  150.1060 C   0  0  0  0  0  0  0  0  0  0  0  0
  145.8680  140.2290  149.4990 C   0  0  0  0  0  0  0  0  0  0  0  0
  147.1300  140.4940  150.0530 C   0  0  0  0  0  3  0  0  0  0  0  0
  143.4800  140.5680  149.6170 O   0  0  0  0  0  0  0  0  0  0  0  0
  143.2560  139.7330  149.2550 H   0  0  0  0  0  0  0  0  0  0  0  0
  145.9350  139.4260  148.3920 O   0  0  0  0  0  0  0  0  0  0  0  0
  146.9860  138.4760  148.3140 C   0  0  0  0  0  1  0  0  0  0  0  0
  1  5  1  0  0  0  0
  2  1  1  0  0  0  0
  2  3  2  0  0  0  0
  4  1  1  0  0  0  0
  5  6  1  0  0  0  0
  7  6  1  0  0  0  0
  8  7  1  0  0  0  0
  8  9  2  0  0  0  0
 10 11  1  0  0  0  0
 10  8  1  6  0  0  0
 11 14  1  0  0  0  0
 12 11  1  0  0  0  0
 13 11  1  0  0  0  0
 15 16  1  6  0  0  0
 15 10  1  0  0  0  0
 17 18  1  0  0  0  0
 18 15  1  0  0  0  0
 19  2  1  0  0  0  0
 20 19  1  0  0  0  0
 20 21  1  0  0  0  0
 22 21  2  0  0  0  0
 23 22  1  0  0  0  0
 24 25  1  0  0  0  0
 24 23  2  0  0  0  0
 25 20  2  0  0  0  0
 26 23  1  0  0  0  0
 27 26  1  0  0  0  0
 28 24  1  0  0  0  0
 29 28  1  0  0  0  0
M  END
>  <MODEL>
1

>  <REMARK>
 VINA RESULT:    -6.263      0.000      0.000
 INTER + INTRA:         -11.386
 INTER:                  -9.286
 INTRA:                  -2.100
 UNBOUND:                -1.095
  Name = CHEMBL1161557
  15 active torsions:
  status: ('A' for Active; 'I' for Inactive)
    1  A    between atoms: C_1  and  C_2
    2  A    between atoms: C_2  and  C_3
    3  A    between atoms: C_3  and  C_4
    4  A    between atoms: C_3  and  C_5
    5  A    between atoms: C_5  and  N_6
    6  A    between atoms: C_5  and  C_7
    7  A    between atoms: C_7  and  O_9
    8  A    between atoms: O_9  and  C_10
    9  A    between atoms: C_10  and  C_11
   10  A    between atoms: C_11  and  N_12
   11  A    between atoms: C_13  and  C_15
   12  A    between atoms: C_15  and  C_16
   13  A    between atoms: C_19  and  O_20
   14  A    between atoms: C_21  and  O_22
   15  A    between atoms: O_22  and  C_23
                            x       y       z     vdW  Elec       q    Type
                         _______ _______ _______ _____ _____    ______ ____

>  <TORSDO>
F 12

>  <SCORE>
-6.263

>  <RMSD_LB>
0.000

>  <RMSD_UB>
0.000

$$$$
CHEMBL1161557
 OpenBabel10172500113D

 29 29  0  0  1  0  0  0  0  0999 V2000
  134.6550  134.7940  153.0940 N   0  0  0  0  0  0  0  0  0  0  0  0
  134.7930  135.6960  154.1300 C   0  0  0  0  0  0  0  0  0  0  0  0
  134.0030  136.6130  154.3400 O   0  0  0  0  0  0  0  0  0  0  0  0
  135.2760  134.0330  153.0320 H   0  0  0  0  0  0  0  0  0  0  0  0
  133.6150  134.9420  152.0940 C   0  0  0  0  0  2  0  0  0  0  0  0
  133.6280  133.8390  151.0320 C   0  0  0  0  0  2  0  0  0  0  0  0
  132.4940  134.0200  150.1660 O   0  0  0  0  0  0  0  0  0  0  0  0
  132.7860  134.1360  148.8400 C   0  0  0  0  0  0  0  0  0  0  0  0
  132.1920  133.5600  147.9360 O   0  0  0  0  0  0  0  0  0  0  0  0
  134.1000  134.9210  148.6580 C   0  0  1  0  0  3  0  0  0  0  0  0
  134.7020  134.4810  147.3710 N   0  0  0  0  0  4  0  0  0  0  0  0
  134.2760  133.6020  147.0790 H   0  0  0  0  0  0  0  0  0  0  0  0
  135.7070  134.3490  147.4940 H   0  0  0  0  0  0  0  0  0  0  0  0
  134.5380  135.1910  146.6580 H   0  0  0  0  0  0  0  0  0  0  0  0
  133.9010  136.4530  148.6490 C   0  0  1  0  0  3  0  0  0  0  0  0
  135.0790  137.1860  147.9950 C   0  0  0  0  0  1  0  0  0  0  0  0
  132.6700  137.3650  146.5470 C   0  0  0  0  0  1  0  0  0  0  0  0
  132.5630  136.8730  147.9870 C   0  0  0  0  0  2  0  0  0  0  0  0
  136.0170  135.4700  155.0020 C   0  0  0  0  0  2  0  0  0  0  0  0
  137.0360  136.5760  154.8890 C   0  0  0  0  0  0  0  0  0  0  0  0
  137.5950  137.1540  156.0340 C   0  0  0  0  0  3  0  0  0  0  0  0
  138.5480  138.1670  155.9230 C   0  0  0  0  0  3  0  0  0  0  0  0
  138.9610  138.6160  154.6620 C   0  0  0  0  0  0  0  0  0  0  0  0
  138.4220  138.0480  153.5030 C   0  0  0  0  0  0  0  0  0  0  0  0
  137.4650  137.0290  153.6340 C   0  0  0  0  0  3  0  0  0  0  0  0
  139.8970  139.6090  154.6060 O   0  0  0  0  0  0  0  0  0  0  0  0
  140.7650  139.4190  154.3080 H   0  0  0  0  0  0  0  0  0  0  0  0
  138.6990  138.3490  152.1970 O   0  0  0  0  0  0  0  0  0  0  0  0
  139.6850  137.5810  151.5250 C   0  0  0  0  0  1  0  0  0  0  0  0
  1  2  1  0  0  0  0
  2  3  2  0  0  0  0
  2 19  1  0  0  0  0
  4  1  1  0  0  0  0
  5  1  1  0  0  0  0
  6  5  1  0  0  0  0
  7  6  1  0  0  0  0
  8  7  1  0  0  0  0
  9  8  2  0  0  0  0
 10  8  1  6  0  0  0
 11 13  1  0  0  0  0
 11 10  1  0  0  0  0
 12 11  1  0  0  0  0
 14 11  1  0  0  0  0
 15 16  1  6  0  0  0
 15 10  1  0  0  0  0
 17 18  1  0  0  0  0
 18 15  1  0  0  0  0
 20 19  1  0  0  0  0
 20 21  1  0  0  0  0
 22 21  2  0  0  0  0
 23 22  1  0  0  0  0
 24 25  1  0  0  0  0
 24 23  2  0  0  0  0
 25 20  2  0  0  0  0
 26 23  1  0  0  0  0
 27 26  1  0  0  0  0
 28 24  1  0  0  0  0
 29 28  1  0  0  0  0
M  END
>  <MODEL>
2

>  <REMARK>
 VINA RESULT:    -6.245      9.601     12.418
 INTER + INTRA:         -11.357
 INTER:                 -10.705
 INTRA:                  -0.651
 UNBOUND:                -1.095
  Name = CHEMBL1161557
  15 active torsions:
  status: ('A' for Active; 'I' for Inactive)
    1  A    between atoms: C_1  and  C_2
    2  A    between atoms: C_2  and  C_3
    3  A    between atoms: C_3  and  C_4
    4  A    between atoms: C_3  and  C_5
    5  A    between atoms: C_5  and  N_6
    6  A    between atoms: C_5  and  C_7
    7  A    between atoms: C_7  and  O_9
    8  A    between atoms: O_9  and  C_10
    9  A    between atoms: C_10  and  C_11
   10  A    between atoms: C_11  and  N_12
   11  A    between atoms: C_13  and  C_15
   12  A    between atoms: C_15  and  C_16
   13  A    between atoms: C_19  and  O_20
   14  A    between atoms: C_21  and  O_22
   15  A    between atoms: O_22  and  C_23
                            x       y       z     vdW  Elec       q    Type
                         _______ _______ _______ _____ _____    ______ ____

>  <TORSDO>
F 12

>  <SCORE>
-6.245

>  <RMSD_LB>
9.601

>  <RMSD_UB>
12.418

$$$$
CHEMBL1161557
 OpenBabel10172500113D

 29 29  0  0  1  0  0  0  0  0999 V2000
  142.9340  136.6730  149.2960 N   0  0  0  0  0  0  0  0  0  0  0  0
  142.0700  137.6240  149.8030 C   0  0  0  0  0  0  0  0  0  0  0  0
  142.0910  138.8050  149.4660 O   0  0  0  0  0  0  0  0  0  0  0  0
  142.8090  135.7290  149.5450 H   0  0  0  0  0  0  0  0  0  0  0  0
  144.0190  137.0330  148.4050 C   0  0  0  0  0  2  0  0  0  0  0  0
  145.3430  137.2920  149.1300 C   0  0  0  0  0  2  0  0  0  0  0  0
  145.7470  138.6500  148.8830 O   0  0  0  0  0  0  0  0  0  0  0  0
  146.1740  139.3400  149.9780 C   0  0  0  0  0  0  0  0  0  0  0  0
  146.7990  138.8560  150.9140 O   0  0  0  0  0  0  0  0  0  0  0  0
  145.5720  140.7590  149.9720 C   0  0  1  0  0  3  0  0  0  0  0  0
  144.2180  140.6680  150.5790 N   0  0  0  0  0  4  0  0  0  0  0  0
  143.8110  141.6000  150.6430 H   0  0  0  0  0  0  0  0  0  0  0  0
  144.2920  140.2640  151.5130 H   0  0  0  0  0  0  0  0  0  0  0  0
  143.6240  140.0760  150.0000 H   0  0  0  0  0  0  0  0  0  0  0  0
  146.4270  141.7880  150.7440 C   0  0  1  0  0  3  0  0  0  0  0  0
  146.9740  142.8900  149.8270 C   0  0  0  0  0  1  0  0  0  0  0  0
  146.2850  142.1440  153.3170 C   0  0  0  0  0  1  0  0  0  0  0  0
  145.6680  142.4060  151.9470 C   0  0  0  0  0  2  0  0  0  0  0  0
  141.0820  137.0940  150.8270 C   0  0  0  0  0  2  0  0  0  0  0  0
  141.3270  137.6270  152.2170 C   0  0  0  0  0  0  0  0  0  0  0  0
  142.6050  137.5890  152.7850 C   0  0  0  0  0  3  0  0  0  0  0  0
  142.8270  138.0980  154.0650 C   0  0  0  0  0  3  0  0  0  0  0  0
  141.7730  138.6570  154.7970 C   0  0  0  0  0  0  0  0  0  0  0  0
  140.4880  138.7120  154.2490 C   0  0  0  0  0  0  0  0  0  0  0  0
  140.2820  138.1980  152.9590 C   0  0  0  0  0  3  0  0  0  0  0  0
  142.0410  139.1420  156.0460 O   0  0  0  0  0  0  0  0  0  0  0  0
  141.5450  139.8610  156.3870 H   0  0  0  0  0  0  0  0  0  0  0  0
  139.3430  139.2170  154.8040 O   0  0  0  0  0  0  0  0  0  0  0  0
  138.3490  138.3040  155.2420 C   0  0  0  0  0  1  0  0  0  0  0  0
  1  4  1  0  0  0  0
  1  2  1  0  0  0  0
  2 19  1  0  0  0  0
  3  2  2  0  0  0  0
  5  6  1  0  0  0  0
  5  1  1  0  0  0  0
  7  6  1  0  0  0  0
  7  8  1  0  0  0  0
  8  9  2  0  0  0  0
 10  8  1  1  0  0  0
 10 11  1  0  0  0  0
 10 15  1  0  0  0  0
 11 12  1  0  0  0  0
 11 13  1  0  0  0  0
 14 11  1  0  0  0  0
 15 16  1  6  0  0  0
 15 18  1  0  0  0  0
 18 17  1  0  0  0  0
 19 20  1  0  0  0  0
 20 21  2  0  0  0  0
 20 25  1  0  0  0  0
 21 22  1  0  0  0  0
 22 23  2  0  0  0  0
 23 26  1  0  0  0  0
 24 23  1  0  0  0  0
 24 28  1  0  0  0  0
 25 24  2  0  0  0  0
 26 27  1  0  0  0  0
 28 29  1  0  0  0  0
M  END
>  <MODEL>
3

>  <REMARK>
 VINA RESULT:    -6.208      3.138      6.976
 INTER + INTRA:         -11.295
 INTER:                 -10.025
 INTRA:                  -1.270
 UNBOUND:                -1.095
  Name = CHEMBL1161557
  15 active torsions:
  status: ('A' for Active; 'I' for Inactive)
    1  A    between atoms: C_1  and  C_2
    2  A    between atoms: C_2  and  C_3
    3  A    between atoms: C_3  and  C_4
    4  A    between atoms: C_3  and  C_5
    5  A    between atoms: C_5  and  N_6
    6  A    between atoms: C_5  and  C_7
    7  A    between atoms: C_7  and  O_9
    8  A    between atoms: O_9  and  C_10
    9  A    between atoms: C_10  and  C_11
   10  A    between atoms: C_11  and  N_12
   11  A    between atoms: C_13  and  C_15
   12  A    between atoms: C_15  and  C_16
   13  A    between atoms: C_19  and  O_20
   14  A    between atoms: C_21  and  O_22
   15  A    between atoms: O_22  and  C_23
                            x       y       z     vdW  Elec       q    Type
                         _______ _______ _______ _____ _____    ______ ____

>  <TORSDO>
F 12

>  <SCORE>
-6.208

>  <RMSD_LB>
3.138

>  <RMSD_UB>
6.976

$$$$
CHEMBL1161557
 OpenBabel10172500113D

 29 29  0  0  1  0  0  0  0  0999 V2000
  145.2160  136.5710  150.9600 N   0  0  0  0  0  0  0  0  0  0  0  0
  144.1960  137.2410  150.3130 C   0  0  0  0  0  0  0  0  0  0  0  0
  144.3390  138.3400  149.7830 O   0  0  0  0  0  0  0  0  0  0  0  0
  145.0570  135.6570  151.2900 H   0  0  0  0  0  0  0  0  0  0  0  0
  146.5130  137.1820  151.1670 C   0  0  0  0  0  2  0  0  0  0  0  0
  146.8460  137.4260  152.6420 C   0  0  0  0  0  2  0  0  0  0  0  0
  147.1370  138.8220  152.8250 O   0  0  0  0  0  0  0  0  0  0  0  0
  146.6850  139.3640  153.9910 C   0  0  0  0  0  0  0  0  0  0  0  0
  146.9940  138.9780  155.1120 O   0  0  0  0  0  0  0  0  0  0  0  0
  145.5670  140.3830  153.6980 C   0  0  1  0  0  3  0  0  0  0  0  0
  144.5940  140.3070  154.8200 N   0  0  0  0  0  4  0  0  0  0  0  0
  144.8790  140.9460  155.5610 H   0  0  0  0  0  0  0  0  0  0  0  0
  144.5690  139.3530  155.1820 H   0  0  0  0  0  0  0  0  0  0  0  0
  143.6670  140.5670  154.4850 H   0  0  0  0  0  0  0  0  0  0  0  0
  146.0850  141.8310  153.5480 C   0  0  1  0  0  3  0  0  0  0  0  0
  147.5540  141.9660  153.9700 C   0  0  0  0  0  1  0  0  0  0  0  0
  145.0540  141.5090  151.1820 C   0  0  0  0  0  1  0  0  0  0  0  0
  145.8750  142.3910  152.1180 C   0  0  0  0  0  2  0  0  0  0  0  0
  142.8660  136.5090  150.3080 C   0  0  0  0  0  2  0  0  0  0  0  0
  141.7980  137.2160  151.1060 C   0  0  0  0  0  0  0  0  0  0  0  0
  140.4730  137.2510  150.6580 C   0  0  0  0  0  3  0  0  0  0  0  0
  139.4890  137.8940  151.4090 C   0  0  0  0  0  3  0  0  0  0  0  0
  139.8140  138.5100  152.6240 C   0  0  0  0  0  0  0  0  0  0  0  0
  141.1300  138.4820  153.0960 C   0  0  0  0  0  0  0  0  0  0  0  0
  142.1080  137.8290  152.3290 C   0  0  0  0  0  3  0  0  0  0  0  0
  138.8140  139.1260  153.3220 O   0  0  0  0  0  0  0  0  0  0  0  0
  139.0240  139.7440  153.9950 H   0  0  0  0  0  0  0  0  0  0  0  0
  141.6350  139.0200  154.2490 O   0  0  0  0  0  0  0  0  0  0  0  0
  141.3510  138.3670  155.4760 C   0  0  0  0  0  1  0  0  0  0  0  0
  1  5  1  0  0  0  0
  1  4  1  0  0  0  0
  2  1  1  0  0  0  0
  3  2  2  0  0  0  0
  5  6  1  0  0  0  0
  6  7  1  0  0  0  0
  7  8  1  0  0  0  0
  8  9  2  0  0  0  0
 10  8  1  1  0  0  0
 10 11  1  0  0  0  0
 11 13  1  0  0  0  0
 11 12  1  0  0  0  0
 14 11  1  0  0  0  0
 15 10  1  0  0  0  0
 15 16  1  6  0  0  0
 17 18  1  0  0  0  0
 18 15  1  0  0  0  0
 19  2  1  0  0  0  0
 19 20  1  0  0  0  0
 20 25  1  0  0  0  0
 21 20  2  0  0  0  0
 21 22  1  0  0  0  0
 22 23  2  0  0  0  0
 23 24  1  0  0  0  0
 23 26  1  0  0  0  0
 24 28  1  0  0  0  0
 25 24  2  0  0  0  0
 26 27  1  0  0  0  0
 28 29  1  0  0  0  0
M  END
>  <MODEL>
4

>  <REMARK>
 VINA RESULT:    -6.193      2.739      5.728
 INTER + INTRA:         -11.271
 INTER:                 -10.198
 INTRA:                  -1.072
 UNBOUND:                -1.095
  Name = CHEMBL1161557
  15 active torsions:
  status: ('A' for Active; 'I' for Inactive)
    1  A    between atoms: C_1  and  C_2
    2  A    between atoms: C_2  and  C_3
    3  A    between atoms: C_3  and  C_4
    4  A    between atoms: C_3  and  C_5
    5  A    between atoms: C_5  and  N_6
    6  A    between atoms: C_5  and  C_7
    7  A    between atoms: C_7  and  O_9
    8  A    between atoms: O_9  and  C_10
    9  A    between atoms: C_10  and  C_11
   10  A    between atoms: C_11  and  N_12
   11  A    between atoms: C_13  and  C_15
   12  A    between atoms: C_15  and  C_16
   13  A    between atoms: C_19  and  O_20
   14  A    between atoms: C_21  and  O_22
   15  A    between atoms: O_22  and  C_23
                            x       y       z     vdW  Elec       q    Type
                         _______ _______ _______ _____ _____    ______ ____

>  <TORSDO>
F 12

>  <SCORE>
-6.193

>  <RMSD_LB>
2.739

>  <RMSD_UB>
5.728

$$$$
CHEMBL1161557
 OpenBabel10172500113D

 29 29  0  0  1  0  0  0  0  0999 V2000
  145.1540  140.8040  148.1910 N   0  0  0  0  0  0  0  0  0  0  0  0
  146.3160  140.8110  148.9380 C   0  0  0  0  0  0  0  0  0  0  0  0
  147.0460  139.8310  149.0640 O   0  0  0  0  0  0  0  0  0  0  0  0
  144.6600  141.6450  148.0630 H   0  0  0  0  0  0  0  0  0  0  0  0
  144.6460  139.5850  147.5930 C   0  0  0  0  0  2  0  0  0  0  0  0
  143.8620  138.7050  148.5710 C   0  0  0  0  0  2  0  0  0  0  0  0
  142.5650  139.2890  148.7800 O   0  0  0  0  0  0  0  0  0  0  0  0
  142.3660  139.8450  150.0090 C   0  0  0  0  0  0  0  0  0  0  0  0
  143.2290  140.4030  150.6760 O   0  0  0  0  0  0  0  0  0  0  0  0
  140.9620  139.4790  150.5290 C   0  0  1  0  0  3  0  0  0  0  0  0
  140.2170  138.8660  149.3970 N   0  0  0  0  0  4  0  0  0  0  0  0
  140.3630  139.4200  148.5540 H   0  0  0  0  0  0  0  0  0  0  0  0
  139.2220  138.8410  149.6210 H   0  0  0  0  0  0  0  0  0  0  0  0
  140.5550  137.9160  149.2430 H   0  0  0  0  0  0  0  0  0  0  0  0
  140.9900  138.5070  151.7300 C   0  0  1  0  0  3  0  0  0  0  0  0
  139.6140  137.8840  152.0010 C   0  0  0  0  0  1  0  0  0  0  0  0
  143.1450  137.3810  152.6520 C   0  0  0  0  0  1  0  0  0  0  0  0
  142.0670  137.4030  151.5730 C   0  0  0  0  0  2  0  0  0  0  0  0
  146.6250  142.1400  149.6060 C   0  0  0  0  0  2  0  0  0  0  0  0
  147.1520  141.9870  151.0110 C   0  0  0  0  0  0  0  0  0  0  0  0
  148.5090  142.1770  151.2930 C   0  0  0  0  0  3  0  0  0  0  0  0
  148.9870  142.0480  152.5970 C   0  0  0  0  0  3  0  0  0  0  0  0
  148.1120  141.7320  153.6440 C   0  0  0  0  0  0  0  0  0  0  0  0
  146.7500  141.5450  153.3890 C   0  0  0  0  0  0  0  0  0  0  0  0
  146.2860  141.6800  152.0710 C   0  0  0  0  0  3  0  0  0  0  0  0
  148.6280  141.6180  154.9040 O   0  0  0  0  0  0  0  0  0  0  0  0
  149.3710  142.1300  155.1540 H   0  0  0  0  0  0  0  0  0  0  0  0
  145.7500  141.2360  154.2710 O   0  0  0  0  0  0  0  0  0  0  0  0
  145.4370  139.8680  154.4810 C   0  0  0  0  0  1  0  0  0  0  0  0
  1  2  1  0  0  0  0
  2  3  2  0  0  0  0
  2 19  1  0  0  0  0
  4  1  1  0  0  0  0
  5  1  1  0  0  0  0
  5  6  1  0  0  0  0
  6  7  1  0  0  0  0
  7  8  1  0  0  0  0
  8  9  2  0  0  0  0
 10  8  1  6  0  0  0
 10 15  1  0  0  0  0
 11 13  1  0  0  0  0
 11 10  1  0  0  0  0
 12 11  1  0  0  0  0
 14 11  1  0  0  0  0
 15 16  1  6  0  0  0
 18 15  1  0  0  0  0
 18 17  1  0  0  0  0
 19 20  1  0  0  0  0
 20 21  2  0  0  0  0
 20 25  1  0  0  0  0
 21 22  1  0  0  0  0
 22 23  2  0  0  0  0
 23 26  1  0  0  0  0
 24 23  1  0  0  0  0
 24 28  1  0  0  0  0
 25 24  2  0  0  0  0
 26 27  1  0  0  0  0
 28 29  1  0  0  0  0
M  END
>  <MODEL>
5

>  <REMARK>
 VINA RESULT:    -6.125      2.696      5.370
 INTER + INTRA:         -11.159
 INTER:                  -9.970
 INTRA:                  -1.189
 UNBOUND:                -1.095
  Name = CHEMBL1161557
  15 active torsions:
  status: ('A' for Active; 'I' for Inactive)
    1  A    between atoms: C_1  and  C_2
    2  A    between atoms: C_2  and  C_3
    3  A    between atoms: C_3  and  C_4
    4  A    between atoms: C_3  and  C_5
    5  A    between atoms: C_5  and  N_6
    6  A    between atoms: C_5  and  C_7
    7  A    between atoms: C_7  and  O_9
    8  A    between atoms: O_9  and  C_10
    9  A    between atoms: C_10  and  C_11
   10  A    between atoms: C_11  and  N_12
   11  A    between atoms: C_13  and  C_15
   12  A    between atoms: C_15  and  C_16
   13  A    between atoms: C_19  and  O_20
   14  A    between atoms: C_21  and  O_22
   15  A    between atoms: O_22  and  C_23
                            x       y       z     vdW  Elec       q    Type
                         _______ _______ _______ _____ _____    ______ ____

>  <TORSDO>
F 12

>  <SCORE>
-6.125

>  <RMSD_LB>
2.696

>  <RMSD_UB>
5.370

$$$$
CHEMBL1161557
 OpenBabel10172500113D

 29 29  0  0  1  0  0  0  0  0999 V2000
  145.2990  141.1330  149.5340 N   0  0  0  0  0  0  0  0  0  0  0  0
  146.0600  142.1820  150.0120 C   0  0  0  0  0  0  0  0  0  0  0  0
  146.9580  142.7160  149.3650 O   0  0  0  0  0  0  0  0  0  0  0  0
  144.5400  140.8070  150.0700 H   0  0  0  0  0  0  0  0  0  0  0  0
  145.5920  140.5010  148.2630 C   0  0  0  0  0  2  0  0  0  0  0  0
  146.6700  139.4170  148.3540 C   0  0  0  0  0  2  0  0  0  0  0  0
  146.0430  138.1300  148.2150 O   0  0  0  0  0  0  0  0  0  0  0  0
  146.6270  137.1180  148.9160 C   0  0  0  0  0  0  0  0  0  0  0  0
  147.5780  136.4510  148.5270 O   0  0  0  0  0  0  0  0  0  0  0  0
  145.7860  136.7900  150.1650 C   0  0  1  0  0  3  0  0  0  0  0  0
  145.1560  135.4620  149.9380 N   0  0  0  0  0  4  0  0  0  0  0  0
  144.3280  135.5740  149.3540 H   0  0  0  0  0  0  0  0  0  0  0  0
  144.8880  135.0560  150.8350 H   0  0  0  0  0  0  0  0  0  0  0  0
  145.8210  134.8450  149.4720 H   0  0  0  0  0  0  0  0  0  0  0  0
  146.6140  136.7640  151.4690 C   0  0  1  0  0  3  0  0  0  0  0  0
  147.4600  138.0320  151.6410 C   0  0  0  0  0  1  0  0  0  0  0  0
  146.4830  136.5050  154.0540 C   0  0  0  0  0  1  0  0  0  0  0  0
  145.7360  136.5200  152.7240 C   0  0  0  0  0  2  0  0  0  0  0  0
  145.7010  142.6300  151.4180 C   0  0  0  0  0  2  0  0  0  0  0  0
  146.3770  141.8120  152.4900 C   0  0  0  0  0  0  0  0  0  0  0  0
  147.7580  141.9020  152.6960 C   0  0  0  0  0  3  0  0  0  0  0  0
  148.3750  141.1530  153.6990 C   0  0  0  0  0  3  0  0  0  0  0  0
  147.6180  140.3040  154.5160 C   0  0  0  0  0  0  0  0  0  0  0  0
  146.2350  140.2030  154.3340 C   0  0  0  0  0  0  0  0  0  0  0  0
  145.6310  140.9640  153.3210 C   0  0  0  0  0  3  0  0  0  0  0  0
  148.2680  139.5920  155.4850 O   0  0  0  0  0  0  0  0  0  0  0  0
  149.1990  139.6550  155.5670 H   0  0  0  0  0  0  0  0  0  0  0  0
  145.3360  139.4370  155.0260 O   0  0  0  0  0  0  0  0  0  0  0  0
  144.0070  139.3540  154.5370 C   0  0  0  0  0  1  0  0  0  0  0  0
  1  2  1  0  0  0  0
  1  4  1  0  0  0  0
  2 19  1  0  0  0  0
  3  2  2  0  0  0  0
  5  6  1  0  0  0  0
  5  1  1  0  0  0  0
  7  6  1  0  0  0  0
  7  8  1  0  0  0  0
  9  8  2  0  0  0  0
 10  8  1  6  0  0  0
 10 15  1  0  0  0  0
 11 10  1  0  0  0  0
 11 13  1  0  0  0  0
 12 11  1  0  0  0  0
 14 11  1  0  0  0  0
 15 16  1  1  0  0  0
 15 18  1  0  0  0  0
 18 17  1  0  0  0  0
 19 20  1  0  0  0  0
 20 21  2  0  0  0  0
 20 25  1  0  0  0  0
 21 22  1  0  0  0  0
 22 23  2  0  0  0  0
 23 26  1  0  0  0  0
 24 23  1  0  0  0  0
 24 28  1  0  0  0  0
 25 24  2  0  0  0  0
 26 27  1  0  0  0  0
 29 28  1  0  0  0  0
M  END
>  <MODEL>
6

>  <REMARK>
 VINA RESULT:    -6.094      2.180      5.166
 INTER + INTRA:         -11.108
 INTER:                  -9.591
 INTRA:                  -1.517
 UNBOUND:                -1.095
  Name = CHEMBL1161557
  15 active torsions:
  status: ('A' for Active; 'I' for Inactive)
    1  A    between atoms: C_1  and  C_2
    2  A    between atoms: C_2  and  C_3
    3  A    between atoms: C_3  and  C_4
    4  A    between atoms: C_3  and  C_5
    5  A    between atoms: C_5  and  N_6
    6  A    between atoms: C_5  and  C_7
    7  A    between atoms: C_7  and  O_9
    8  A    between atoms: O_9  and  C_10
    9  A    between atoms: C_10  and  C_11
   10  A    between atoms: C_11  and  N_12
   11  A    between atoms: C_13  and  C_15
   12  A    between atoms: C_15  and  C_16
   13  A    between atoms: C_19  and  O_20
   14  A    between atoms: C_21  and  O_22
   15  A    between atoms: O_22  and  C_23
                            x       y       z     vdW  Elec       q    Type
                         _______ _______ _______ _____ _____    ______ ____

>  <TORSDO>
F 12

>  <SCORE>
-6.094

>  <RMSD_LB>
2.180

>  <RMSD_UB>
5.166

$$$$
CHEMBL1161557
 OpenBabel10172500113D

 29 29  0  0  1  0  0  0  0  0999 V2000
  134.1440  134.7420  152.1120 N   0  0  0  0  0  0  0  0  0  0  0  0
  134.6450  135.5590  153.1070 C   0  0  0  0  0  0  0  0  0  0  0  0
  134.0380  136.5300  153.5550 O   0  0  0  0  0  0  0  0  0  0  0  0
  134.6440  133.9330  151.8580 H   0  0  0  0  0  0  0  0  0  0  0  0
  132.9000  135.0490  151.4340 C   0  0  0  0  0  2  0  0  0  0  0  0
  132.5020  134.0060  150.3860 C   0  0  0  0  0  2  0  0  0  0  0  0
  133.2850  134.2230  149.1990 O   0  0  0  0  0  0  0  0  0  0  0  0
  133.8360  133.1030  148.6520 C   0  0  0  0  0  0  0  0  0  0  0  0
  134.3180  132.1730  149.2880 O   0  0  0  0  0  0  0  0  0  0  0  0
  133.9640  133.2740  147.1250 C   0  0  1  0  0  3  0  0  0  0  0  0
  133.2170  134.5050  146.7540 N   0  0  0  0  0  4  0  0  0  0  0  0
  132.3330  134.2460  146.3170 H   0  0  0  0  0  0  0  0  0  0  0  0
  133.7740  135.0540  146.0980 H   0  0  0  0  0  0  0  0  0  0  0  0
  133.0350  135.0570  147.5900 H   0  0  0  0  0  0  0  0  0  0  0  0
  135.4290  133.3810  146.6430 C   0  0  1  0  0  3  0  0  0  0  0  0
  136.2370  134.3890  147.4710 C   0  0  0  0  0  1  0  0  0  0  0  0
  136.9090  131.6950  145.3270 C   0  0  0  0  0  1  0  0  0  0  0  0
  136.1440  132.0060  146.6100 C   0  0  0  0  0  2  0  0  0  0  0  0
  136.0230  135.1660  153.6100 C   0  0  0  0  0  2  0  0  0  0  0  0
  136.4840  135.9960  154.7820 C   0  0  0  0  0  0  0  0  0  0  0  0
  136.1430  135.6400  156.0920 C   0  0  0  0  0  3  0  0  0  0  0  0
  136.5860  136.4040  157.1710 C   0  0  0  0  0  3  0  0  0  0  0  0
  137.3820  137.5360  156.9590 C   0  0  0  0  0  0  0  0  0  0  0  0
  137.7420  137.9090  155.6600 C   0  0  0  0  0  0  0  0  0  0  0  0
  137.2890  137.1280  154.5850 C   0  0  0  0  0  3  0  0  0  0  0  0
  137.7910  138.2520  158.0490 O   0  0  0  0  0  0  0  0  0  0  0  0
  138.4420  138.9190  157.9550 H   0  0  0  0  0  0  0  0  0  0  0  0
  138.5060  138.9700  155.2560 O   0  0  0  0  0  0  0  0  0  0  0  0
  139.7010  138.7030  154.5380 C   0  0  0  0  0  1  0  0  0  0  0  0
  1  2  1  0  0  0  0
  2  3  2  0  0  0  0
  2 19  1  0  0  0  0
  4  1  1  0  0  0  0
  5  1  1  0  0  0  0
  6  5  1  0  0  0  0
  7  6  1  0  0  0  0
  8  7  1  0  0  0  0
  8  9  2  0  0  0  0
 10  8  1  1  0  0  0
 11 10  1  0  0  0  0
 11 14  1  0  0  0  0
 12 11  1  0  0  0  0
 13 11  1  0  0  0  0
 15 10  1  0  0  0  0
 15 16  1  1  0  0  0
 17 18  1  0  0  0  0
 18 15  1  0  0  0  0
 19 20  1  0  0  0  0
 20 21  1  0  0  0  0
 21 22  2  0  0  0  0
 23 22  1  0  0  0  0
 23 26  1  0  0  0  0
 24 23  2  0  0  0  0
 25 20  2  0  0  0  0
 25 24  1  0  0  0  0
 27 26  1  0  0  0  0
 28 24  1  0  0  0  0
 29 28  1  0  0  0  0
M  END
>  <MODEL>
7

>  <REMARK>
 VINA RESULT:    -6.007      9.809     12.981
 INTER + INTRA:         -10.965
 INTER:                 -10.494
 INTRA:                  -0.471
 UNBOUND:                -1.095
  Name = CHEMBL1161557
  15 active torsions:
  status: ('A' for Active; 'I' for Inactive)
    1  A    between atoms: C_1  and  C_2
    2  A    between atoms: C_2  and  C_3
    3  A    between atoms: C_3  and  C_4
    4  A    between atoms: C_3  and  C_5
    5  A    between atoms: C_5  and  N_6
    6  A    between atoms: C_5  and  C_7
    7  A    between atoms: C_7  and  O_9
    8  A    between atoms: O_9  and  C_10
    9  A    between atoms: C_10  and  C_11
   10  A    between atoms: C_11  and  N_12
   11  A    between atoms: C_13  and  C_15
   12  A    between atoms: C_15  and  C_16
   13  A    between atoms: C_19  and  O_20
   14  A    between atoms: C_21  and  O_22
   15  A    between atoms: O_22  and  C_23
                            x       y       z     vdW  Elec       q    Type
                         _______ _______ _______ _____ _____    ______ ____

>  <TORSDO>
F 12

>  <SCORE>
-6.007

>  <RMSD_LB>
9.809

>  <RMSD_UB>
12.981

$$$$
CHEMBL1161557
 OpenBabel10172500113D

 29 29  0  0  1  0  0  0  0  0999 V2000
  143.1250  139.6330  154.0760 N   0  0  0  0  0  0  0  0  0  0  0  0
  142.4910  138.4400  153.7900 C   0  0  0  0  0  0  0  0  0  0  0  0
  142.8500  137.3570  154.2470 O   0  0  0  0  0  0  0  0  0  0  0  0
  142.7370  140.4750  153.7450 H   0  0  0  0  0  0  0  0  0  0  0  0
  144.3500  139.6740  154.8510 C   0  0  0  0  0  2  0  0  0  0  0  0
  145.5400  140.2530  154.0810 C   0  0  0  0  0  2  0  0  0  0  0  0
  145.6660  139.5520  152.8320 O   0  0  0  0  0  0  0  0  0  0  0  0
  146.9070  139.5830  152.2680 C   0  0  0  0  0  0  0  0  0  0  0  0
  147.3540  138.7360  151.5040 O   0  0  0  0  0  0  0  0  0  0  0  0
  147.7420  140.7150  152.8980 C   0  0  1  0  0  3  0  0  0  0  0  0
  149.0800  140.1520  153.2190 N   0  0  0  0  0  4  0  0  0  0  0  0
  149.8020  140.7130  152.7670 H   0  0  0  0  0  0  0  0  0  0  0  0
  149.1340  139.1910  152.8800 H   0  0  0  0  0  0  0  0  0  0  0  0
  149.2220  140.1650  154.2280 H   0  0  0  0  0  0  0  0  0  0  0  0
  147.8960  141.9460  151.9760 C   0  0  1  0  0  3  0  0  0  0  0  0
  149.3660  142.3190  151.7510 C   0  0  0  0  0  1  0  0  0  0  0  0
  146.0130  142.7310  150.3630 C   0  0  0  0  0  1  0  0  0  0  0  0
  147.1650  141.7660  150.6210 C   0  0  0  0  0  2  0  0  0  0  0  0
  141.3030  138.5670  152.8520 C   0  0  0  0  0  2  0  0  0  0  0  0
  139.9820  138.3000  153.5300 C   0  0  0  0  0  0  0  0  0  0  0  0
  139.7990  138.5960  154.8860 C   0  0  0  0  0  3  0  0  0  0  0  0
  138.5700  138.3600  155.5020 C   0  0  0  0  0  3  0  0  0  0  0  0
  137.5020  137.8260  154.7710 C   0  0  0  0  0  0  0  0  0  0  0  0
  137.6580  137.5290  153.4140 C   0  0  0  0  0  0  0  0  0  0  0  0
  138.9010  137.7740  152.8090 C   0  0  0  0  0  3  0  0  0  0  0  0
  136.3180  137.6140  155.4210 O   0  0  0  0  0  0  0  0  0  0  0  0
  136.1870  136.8240  155.9080 H   0  0  0  0  0  0  0  0  0  0  0  0
  136.7390  137.0090  152.5420 O   0  0  0  0  0  0  0  0  0  0  0  0
  137.1720  136.6700  151.2340 C   0  0  0  0  0  1  0  0  0  0  0  0
  1  5  1  0  0  0  0
  2  1  1  0  0  0  0
  2  3  2  0  0  0  0
  4  1  1  0  0  0  0
  6  5  1  0  0  0  0
  7  6  1  0  0  0  0
  8  7  1  0  0  0  0
  9  8  2  0  0  0  0
 10  8  1  6  0  0  0
 10 11  1  0  0  0  0
 11 14  1  0  0  0  0
 12 11  1  0  0  0  0
 13 11  1  0  0  0  0
 15 16  1  6  0  0  0
 15 10  1  0  0  0  0
 17 18  1  0  0  0  0
 18 15  1  0  0  0  0
 19 20  1  0  0  0  0
 19  2  1  0  0  0  0
 20 21  1  0  0  0  0
 21 22  2  0  0  0  0
 23 26  1  0  0  0  0
 23 22  1  0  0  0  0
 24 23  2  0  0  0  0
 25 24  1  0  0  0  0
 25 20  2  0  0  0  0
 26 27  1  0  0  0  0
 28 24  1  0  0  0  0
 29 28  1  0  0  0  0
M  END
>  <MODEL>
8

>  <REMARK>
 VINA RESULT:    -5.994      4.364      7.086
 INTER + INTRA:         -10.943
 INTER:                 -10.467
 INTRA:                  -0.477
 UNBOUND:                -1.095
  Name = CHEMBL1161557
  15 active torsions:
  status: ('A' for Active; 'I' for Inactive)
    1  A    between atoms: C_1  and  C_2
    2  A    between atoms: C_2  and  C_3
    3  A    between atoms: C_3  and  C_4
    4  A    between atoms: C_3  and  C_5
    5  A    between atoms: C_5  and  N_6
    6  A    between atoms: C_5  and  C_7
    7  A    between atoms: C_7  and  O_9
    8  A    between atoms: O_9  and  C_10
    9  A    between atoms: C_10  and  C_11
   10  A    between atoms: C_11  and  N_12
   11  A    between atoms: C_13  and  C_15
   12  A    between atoms: C_15  and  C_16
   13  A    between atoms: C_19  and  O_20
   14  A    between atoms: C_21  and  O_22
   15  A    between atoms: O_22  and  C_23
                            x       y       z     vdW  Elec       q    Type
                         _______ _______ _______ _____ _____    ______ ____

>  <TORSDO>
F 12

>  <SCORE>
-5.994

>  <RMSD_LB>
4.364

>  <RMSD_UB>
7.086

$$$$
CHEMBL1161557
 OpenBabel10172500113D

 29 29  0  0  1  0  0  0  0  0999 V2000
  145.1710  141.1030  149.6530 N   0  0  0  0  0  0  0  0  0  0  0  0
  145.9830  142.1320  150.0880 C   0  0  0  0  0  0  0  0  0  0  0  0
  146.8740  142.6280  149.4020 O   0  0  0  0  0  0  0  0  0  0  0  0
  144.4230  140.8080  150.2200 H   0  0  0  0  0  0  0  0  0  0  0  0
  145.3970  140.4470  148.3800 C   0  0  0  0  0  2  0  0  0  0  0  0
  145.7790  138.9700  148.5130 C   0  0  0  0  0  2  0  0  0  0  0  0
  144.5760  138.1910  148.6290 O   0  0  0  0  0  0  0  0  0  0  0  0
  144.7560  136.8930  149.0040 C   0  0  0  0  0  0  0  0  0  0  0  0
  145.3330  136.0420  148.3370 O   0  0  0  0  0  0  0  0  0  0  0  0
  143.9420  136.5970  150.2790 C   0  0  1  0  0  3  0  0  0  0  0  0
  144.6600  137.2290  151.4180 N   0  0  0  0  0  4  0  0  0  0  0  0
  145.3930  137.8400  151.0590 H   0  0  0  0  0  0  0  0  0  0  0  0
  145.0770  136.5020  152.0010 H   0  0  0  0  0  0  0  0  0  0  0  0
  144.0030  137.7750  151.9730 H   0  0  0  0  0  0  0  0  0  0  0  0
  142.4910  137.1240  150.2140 C   0  0  1  0  0  3  0  0  0  0  0  0
  141.6050  136.2670  149.3010 C   0  0  0  0  0  1  0  0  0  0  0  0
  141.2720  138.6420  151.9380 C   0  0  0  0  0  1  0  0  0  0  0  0
  141.8490  137.2670  151.6180 C   0  0  0  0  0  2  0  0  0  0  0  0
  145.6920  142.6070  151.5010 C   0  0  0  0  0  2  0  0  0  0  0  0
  146.3670  141.7690  152.5590 C   0  0  0  0  0  0  0  0  0  0  0  0
  147.7240  141.9410  152.8510 C   0  0  0  0  0  3  0  0  0  0  0  0
  148.3380  141.1720  153.8410 C   0  0  0  0  0  3  0  0  0  0  0  0
  147.6020  140.2210  154.5570 C   0  0  0  0  0  0  0  0  0  0  0  0
  146.2420  140.0360  154.2880 C   0  0  0  0  0  0  0  0  0  0  0  0
  145.6400  140.8190  153.2900 C   0  0  0  0  0  3  0  0  0  0  0  0
  148.2490  139.4940  155.5170 O   0  0  0  0  0  0  0  0  0  0  0  0
  149.1460  139.2510  155.3960 H   0  0  0  0  0  0  0  0  0  0  0  0
  145.3650  139.1650  154.8770 O   0  0  0  0  0  0  0  0  0  0  0  0
  144.0180  139.1640  154.4320 C   0  0  0  0  0  1  0  0  0  0  0  0
  1  2  1  0  0  0  0
  1  4  1  0  0  0  0
  2 19  1  0  0  0  0
  3  2  2  0  0  0  0
  5  6  1  0  0  0  0
  5  1  1  0  0  0  0
  6  7  1  0  0  0  0
  7  8  1  0  0  0  0
  9  8  2  0  0  0  0
 10  8  1  6  0  0  0
 10 11  1  0  0  0  0
 11 14  1  0  0  0  0
 11 13  1  0  0  0  0
 12 11  1  0  0  0  0
 15 16  1  6  0  0  0
 15 10  1  0  0  0  0
 15 18  1  0  0  0  0
 18 17  1  0  0  0  0
 19 20  1  0  0  0  0
 20 21  2  0  0  0  0
 20 25  1  0  0  0  0
 21 22  1  0  0  0  0
 22 23  2  0  0  0  0
 23 26  1  0  0  0  0
 24 23  1  0  0  0  0
 24 28  1  0  0  0  0
 25 24  2  0  0  0  0
 27 26  1  0  0  0  0
 29 28  1  0  0  0  0
M  END
>  <MODEL>
9

>  <REMARK>
 VINA RESULT:    -5.785      2.219      5.206
 INTER + INTRA:         -10.600
 INTER:                  -9.505
 INTRA:                  -1.095
 UNBOUND:                -1.095
  Name = CHEMBL1161557
  15 active torsions:
  status: ('A' for Active; 'I' for Inactive)
    1  A    between atoms: C_1  and  C_2
    2  A    between atoms: C_2  and  C_3
    3  A    between atoms: C_3  and  C_4
    4  A    between atoms: C_3  and  C_5
    5  A    between atoms: C_5  and  N_6
    6  A    between atoms: C_5  and  C_7
    7  A    between atoms: C_7  and  O_9
    8  A    between atoms: O_9  and  C_10
    9  A    between atoms: C_10  and  C_11
   10  A    between atoms: C_11  and  N_12
   11  A    between atoms: C_13  and  C_15
   12  A    between atoms: C_15  and  C_16
   13  A    between atoms: C_19  and  O_20
   14  A    between atoms: C_21  and  O_22
   15  A    between atoms: O_22  and  C_23
                            x       y       z     vdW  Elec       q    Type
                         _______ _______ _______ _____ _____    ______ ____

>  <TORSDO>
F 12

>  <SCORE>
-5.785

>  <RMSD_LB>
2.219

>  <RMSD_UB>
5.206

$$$$
