CHEMBL1430515
 OpenBabel10172500593D

 28 29  0  0  0  0  0  0  0  0999 V2000
  135.8020  135.1510  153.4500 N   0  0  0  0  0  0  0  0  0  0  0  0
  134.6720  135.3380  152.6950 C   0  0  0  0  0  0  0  0  0  0  0  0
  133.9720  136.3190  152.7660 O   0  0  0  0  0  0  0  0  0  0  0  0
  134.3990  134.2730  151.8580 N   0  0  0  0  0  0  0  0  0  0  0  0
  136.3100  134.3130  153.3530 H   0  0  0  0  0  0  0  0  0  0  0  0
  135.0140  133.5060  151.8280 H   0  0  0  0  0  0  0  0  0  0  0  0
  136.2750  136.1640  154.4010 C   0  0  0  0  0  2  0  0  0  0  0  0
  135.4050  135.2090  158.5780 C   0  0  0  0  0  0  0  0  0  0  0  0
  134.7020  134.6150  157.5290 C   0  0  0  0  0  3  0  0  0  0  0  0
  134.9730  134.9300  156.1980 C   0  0  0  0  0  3  0  0  0  0  0  0
  135.9660  135.8520  155.8590 C   0  0  0  0  0  0  0  0  0  0  0  0
  136.6720  136.4610  156.9190 C   0  0  0  0  0  3  0  0  0  0  0  0
  136.4530  136.0950  158.2690 C   0  0  0  0  0  0  0  0  0  0  0  0
  133.8180  135.5970  160.3080 C   0  0  0  0  0  1  0  0  0  0  0  0
  135.0470  135.0090  159.8860 O   0  0  0  0  0  0  0  0  0  0  0  0
  137.3080  136.6930  159.1680 O   0  0  0  0  0  0  0  0  0  0  0  0
  138.0120  137.8500  158.7080 C   0  0  0  0  0  1  0  0  0  0  0  0
  133.2070  134.2790  151.0240 C   0  0  0  0  0  2  0  0  0  0  0  0
  133.5220  134.2230  149.5450 C   0  0  0  0  0  0  0  0  0  0  0  0
  133.5280  132.9890  148.8850 C   0  0  0  0  0  3  0  0  0  0  0  0
  133.7740  132.9090  147.5090 C   0  0  0  0  0  3  0  0  0  0  0  0
  133.9960  134.0630  146.7500 C   0  0  0  0  0  0  0  0  0  0  0  0
  133.9110  135.3170  147.3780 C   0  0  0  0  0  0  0  0  0  0  0  0
  133.7450  135.3820  148.7790 C   0  0  0  0  0  3  0  0  0  0  0  0
  134.3130  134.0340  145.4210 O   0  0  0  0  0  0  0  0  0  0  0  0
  135.2230  133.0540  144.9470 C   0  0  0  0  0  1  0  0  0  0  0  0
  133.9710  136.5460  146.7520 O   0  0  0  0  0  0  0  0  0  0  0  0
  132.7740  137.3320  146.7680 C   0  0  0  0  0  1  0  0  0  0  0  0
  1  7  1  0  0  0  0
  2  3  2  0  0  0  0
  2  1  1  0  0  0  0
  4  2  1  0  0  0  0
  5  1  1  0  0  0  0
  6  4  1  0  0  0  0
  7 11  1  0  0  0  0
  8 15  1  0  0  0  0
  9  8  2  0  0  0  0
 10  9  1  0  0  0  0
 11 10  2  0  0  0  0
 11 12  1  0  0  0  0
 12 13  2  0  0  0  0
 13  8  1  0  0  0  0
 13 16  1  0  0  0  0
 15 14  1  0  0  0  0
 17 16  1  0  0  0  0
 18  4  1  0  0  0  0
 19 18  1  0  0  0  0
 20 19  1  0  0  0  0
 21 20  2  0  0  0  0
 22 23  2  0  0  0  0
 22 21  1  0  0  0  0
 23 24  1  0  0  0  0
 24 19  2  0  0  0  0
 25 22  1  0  0  0  0
 26 25  1  0  0  0  0
 27 28  1  0  0  0  0
 27 23  1  0  0  0  0
M  END
>  <MODEL>
1

>  <REMARK>
 VINA RESULT:    -7.131      0.000      0.000
 INTER + INTRA:         -11.052
 INTER:                 -10.430
 INTRA:                  -0.623
 UNBOUND:                -0.587
  Name = CHEMBL1430515
  12 active torsions:
  status: ('A' for Active; 'I' for Inactive)
    1  A    between atoms: C_1  and  O_2
    2  A    between atoms: O_2  and  C_3
    3  A    between atoms: C_6  and  C_7
    4  A    between atoms: C_7  and  N_8
    5  A    between atoms: N_11  and  C_12
    6  A    between atoms: C_12  and  C_13
    7  A    between atoms: C_16  and  O_17
    8  A    between atoms: O_17  and  C_18
    9  A    between atoms: C_19  and  O_20
   10  A    between atoms: O_20  and  C_21
   11  A    between atoms: C_24  and  O_25
   12  A    between atoms: O_25  and  C_26
                            x       y       z     vdW  Elec       q    Type
                         _______ _______ _______ _____ _____    ______ ____

>  <TORSDO>
F 8

>  <SCORE>
-7.131

>  <RMSD_LB>
0.000

>  <RMSD_UB>
0.000

$$$$
CHEMBL1430515
 OpenBabel10172500593D

 28 29  0  0  0  0  0  0  0  0999 V2000
  142.2270  139.8330  151.2250 N   0  0  0  0  0  0  0  0  0  0  0  0
  141.5310  138.6570  151.3510 C   0  0  0  0  0  0  0  0  0  0  0  0
  141.9830  137.5750  151.0620 O   0  0  0  0  0  0  0  0  0  0  0  0
  140.2440  138.8370  151.8200 N   0  0  0  0  0  0  0  0  0  0  0  0
  141.7820  140.6790  151.4600 H   0  0  0  0  0  0  0  0  0  0  0  0
  139.9330  139.7400  152.0570 H   0  0  0  0  0  0  0  0  0  0  0  0
  143.6140  139.8650  150.7490 C   0  0  0  0  0  2  0  0  0  0  0  0
  146.4340  141.5600  153.6280 C   0  0  0  0  0  0  0  0  0  0  0  0
  146.0770  142.2420  152.4640 C   0  0  0  0  0  3  0  0  0  0  0  0
  145.1870  141.6940  151.5410 C   0  0  0  0  0  3  0  0  0  0  0  0
  144.6100  140.4390  151.7480 C   0  0  0  0  0  0  0  0  0  0  0  0
  144.9770  139.7440  152.9210 C   0  0  0  0  0  3  0  0  0  0  0  0
  145.8230  140.3220  153.8980 C   0  0  0  0  0  0  0  0  0  0  0  0
  148.7600  141.7560  154.0870 C   0  0  0  0  0  1  0  0  0  0  0  0
  147.4120  142.0310  154.4650 O   0  0  0  0  0  0  0  0  0  0  0  0
  145.9820  139.5640  155.0360 O   0  0  0  0  0  0  0  0  0  0  0  0
  146.9400  138.5030  154.9690 C   0  0  0  0  0  1  0  0  0  0  0  0
  139.3460  137.7020  151.9620 C   0  0  0  0  0  2  0  0  0  0  0  0
  138.6250  137.6840  153.2930 C   0  0  0  0  0  0  0  0  0  0  0  0
  139.1420  138.4140  154.3700 C   0  0  0  0  0  3  0  0  0  0  0  0
  138.4760  138.4510  155.6000 C   0  0  0  0  0  3  0  0  0  0  0  0
  137.2600  137.7830  155.7810 C   0  0  0  0  0  0  0  0  0  0  0  0
  136.6820  137.1160  154.6880 C   0  0  0  0  0  0  0  0  0  0  0  0
  137.4020  137.0140  153.4770 C   0  0  0  0  0  3  0  0  0  0  0  0
  136.6090  137.7280  156.9810 O   0  0  0  0  0  0  0  0  0  0  0  0
  137.1420  136.9270  158.0230 C   0  0  0  0  0  1  0  0  0  0  0  0
  135.4340  136.5260  154.6640 O   0  0  0  0  0  0  0  0  0  0  0  0
  135.3700  135.1860  154.1620 C   0  0  0  0  0  1  0  0  0  0  0  0
  1  2  1  0  0  0  0
  1  5  1  0  0  0  0
  2  4  1  0  0  0  0
  3  2  2  0  0  0  0
  4 18  1  0  0  0  0
  4  6  1  0  0  0  0
  7  1  1  0  0  0  0
  7 11  1  0  0  0  0
  8 13  1  0  0  0  0
  8 15  1  0  0  0  0
  9  8  2  0  0  0  0
 10 11  2  0  0  0  0
 10  9  1  0  0  0  0
 11 12  1  0  0  0  0
 12 13  2  0  0  0  0
 13 16  1  0  0  0  0
 14 15  1  0  0  0  0
 17 16  1  0  0  0  0
 18 19  1  0  0  0  0
 19 24  2  0  0  0  0
 19 20  1  0  0  0  0
 20 21  2  0  0  0  0
 21 22  1  0  0  0  0
 22 25  1  0  0  0  0
 23 22  2  0  0  0  0
 24 23  1  0  0  0  0
 25 26  1  0  0  0  0
 27 23  1  0  0  0  0
 28 27  1  0  0  0  0
M  END
>  <MODEL>
2

>  <REMARK>
 VINA RESULT:    -6.965      7.570     10.664
 INTER + INTRA:         -10.809
 INTER:                 -10.071
 INTRA:                  -0.737
 UNBOUND:                -0.587
  Name = CHEMBL1430515
  12 active torsions:
  status: ('A' for Active; 'I' for Inactive)
    1  A    between atoms: C_1  and  O_2
    2  A    between atoms: O_2  and  C_3
    3  A    between atoms: C_6  and  C_7
    4  A    between atoms: C_7  and  N_8
    5  A    between atoms: N_11  and  C_12
    6  A    between atoms: C_12  and  C_13
    7  A    between atoms: C_16  and  O_17
    8  A    between atoms: O_17  and  C_18
    9  A    between atoms: C_19  and  O_20
   10  A    between atoms: O_20  and  C_21
   11  A    between atoms: C_24  and  O_25
   12  A    between atoms: O_25  and  C_26
                            x       y       z     vdW  Elec       q    Type
                         _______ _______ _______ _____ _____    ______ ____

>  <TORSDO>
F 8

>  <SCORE>
-6.965

>  <RMSD_LB>
7.570

>  <RMSD_UB>
10.664

$$$$
CHEMBL1430515
 OpenBabel10172500593D

 28 29  0  0  0  0  0  0  0  0999 V2000
  142.5590  138.1610  154.5720 N   0  0  0  0  0  0  0  0  0  0  0  0
  141.3740  138.4540  155.1990 C   0  0  0  0  0  0  0  0  0  0  0  0
  140.7390  139.4600  154.9970 O   0  0  0  0  0  0  0  0  0  0  0  0
  140.9920  137.4890  156.1110 N   0  0  0  0  0  0  0  0  0  0  0  0
  143.0320  137.3300  154.8070 H   0  0  0  0  0  0  0  0  0  0  0  0
  141.5390  136.6790  156.2230 H   0  0  0  0  0  0  0  0  0  0  0  0
  143.1410  139.0520  153.5630 C   0  0  0  0  0  2  0  0  0  0  0  0
  147.2870  140.1980  154.3510 C   0  0  0  0  0  0  0  0  0  0  0  0
  146.3770  141.0880  153.7780 C   0  0  0  0  0  3  0  0  0  0  0  0
  145.0580  140.7160  153.5160 C   0  0  0  0  0  3  0  0  0  0  0  0
  144.5920  139.4360  153.8230 C   0  0  0  0  0  0  0  0  0  0  0  0
  145.5140  138.5310  154.3950 C   0  0  0  0  0  3  0  0  0  0  0  0
  146.8330  138.9220  154.7300 C   0  0  0  0  0  0  0  0  0  0  0  0
  148.9800  141.8620  154.1960 C   0  0  0  0  0  1  0  0  0  0  0  0
  148.6150  140.5130  154.4800 O   0  0  0  0  0  0  0  0  0  0  0  0
  147.5620  137.9590  155.3910 O   0  0  0  0  0  0  0  0  0  0  0  0
  147.8900  138.2300  156.7570 C   0  0  0  0  0  1  0  0  0  0  0  0
  139.7870  137.6640  156.9080 C   0  0  0  0  0  2  0  0  0  0  0  0
  138.5780  136.9790  156.3060 C   0  0  0  0  0  0  0  0  0  0  0  0
  137.7220  136.2400  157.1300 C   0  0  0  0  0  3  0  0  0  0  0  0
  136.5730  135.6300  156.6110 C   0  0  0  0  0  3  0  0  0  0  0  0
  136.2360  135.7650  155.2600 C   0  0  0  0  0  0  0  0  0  0  0  0
  137.0370  136.5730  154.4350 C   0  0  0  0  0  0  0  0  0  0  0  0
  138.2360  137.1140  154.9490 C   0  0  0  0  0  3  0  0  0  0  0  0
  135.1680  135.1300  154.6890 O   0  0  0  0  0  0  0  0  0  0  0  0
  133.9510  135.8390  154.5190 C   0  0  0  0  0  1  0  0  0  0  0  0
  136.7700  136.9140  153.1250 O   0  0  0  0  0  0  0  0  0  0  0  0
  137.8670  137.4290  152.3610 C   0  0  0  0  0  1  0  0  0  0  0  0
  1  5  1  0  0  0  0
  1  2  1  0  0  0  0
  2  4  1  0  0  0  0
  3  2  2  0  0  0  0
  4  6  1  0  0  0  0
  4 18  1  0  0  0  0
  7 11  1  0  0  0  0
  7  1  1  0  0  0  0
  8 15  1  0  0  0  0
  8 13  1  0  0  0  0
  9  8  2  0  0  0  0
 10  9  1  0  0  0  0
 10 11  2  0  0  0  0
 11 12  1  0  0  0  0
 12 13  2  0  0  0  0
 13 16  1  0  0  0  0
 14 15  1  0  0  0  0
 16 17  1  0  0  0  0
 19 18  1  0  0  0  0
 19 20  1  0  0  0  0
 21 20  2  0  0  0  0
 22 21  1  0  0  0  0
 23 24  1  0  0  0  0
 23 22  2  0  0  0  0
 24 19  2  0  0  0  0
 25 22  1  0  0  0  0
 26 25  1  0  0  0  0
 27 23  1  0  0  0  0
 28 27  1  0  0  0  0
M  END
>  <MODEL>
3

>  <REMARK>
 VINA RESULT:    -6.899      7.180     10.313
 INTER + INTRA:         -10.712
 INTER:                 -10.346
 INTRA:                  -0.366
 UNBOUND:                -0.587
  Name = CHEMBL1430515
  12 active torsions:
  status: ('A' for Active; 'I' for Inactive)
    1  A    between atoms: C_1  and  O_2
    2  A    between atoms: O_2  and  C_3
    3  A    between atoms: C_6  and  C_7
    4  A    between atoms: C_7  and  N_8
    5  A    between atoms: N_11  and  C_12
    6  A    between atoms: C_12  and  C_13
    7  A    between atoms: C_16  and  O_17
    8  A    between atoms: O_17  and  C_18
    9  A    between atoms: C_19  and  O_20
   10  A    between atoms: O_20  and  C_21
   11  A    between atoms: C_24  and  O_25
   12  A    between atoms: O_25  and  C_26
                            x       y       z     vdW  Elec       q    Type
                         _______ _______ _______ _____ _____    ______ ____

>  <TORSDO>
F 8

>  <SCORE>
-6.899

>  <RMSD_LB>
7.180

>  <RMSD_UB>
10.313

$$$$
CHEMBL1430515
 OpenBabel10172500593D

 28 29  0  0  0  0  0  0  0  0999 V2000
  142.7560  137.8430  153.6370 N   0  0  0  0  0  0  0  0  0  0  0  0
  141.8070  138.5800  154.3000 C   0  0  0  0  0  0  0  0  0  0  0  0
  142.0650  139.5000  155.0370 O   0  0  0  0  0  0  0  0  0  0  0  0
  140.5190  138.1430  154.0590 N   0  0  0  0  0  0  0  0  0  0  0  0
  142.4690  137.0910  153.0700 H   0  0  0  0  0  0  0  0  0  0  0  0
  140.3640  137.3990  153.4350 H   0  0  0  0  0  0  0  0  0  0  0  0
  144.1880  138.1440  153.7500 C   0  0  0  0  0  2  0  0  0  0  0  0
  145.4000  141.7560  151.6060 C   0  0  0  0  0  0  0  0  0  0  0  0
  144.4560  140.8740  151.0790 C   0  0  0  0  0  3  0  0  0  0  0  0
  144.0800  139.7160  151.7590 C   0  0  0  0  0  3  0  0  0  0  0  0
  144.6310  139.3940  153.0020 C   0  0  0  0  0  0  0  0  0  0  0  0
  145.5930  140.2810  153.5320 C   0  0  0  0  0  3  0  0  0  0  0  0
  145.9270  141.4940  152.8830 C   0  0  0  0  0  0  0  0  0  0  0  0
  146.8260  142.5170  149.8600 C   0  0  0  0  0  1  0  0  0  0  0  0
  145.8750  142.8180  150.8790 O   0  0  0  0  0  0  0  0  0  0  0  0
  146.7890  142.3020  153.5920 O   0  0  0  0  0  0  0  0  0  0  0  0
  148.0000  141.6950  154.0540 C   0  0  0  0  0  1  0  0  0  0  0  0
  139.3900  138.7750  154.7250 C   0  0  0  0  0  2  0  0  0  0  0  0
  138.3920  137.7750  155.2690 C   0  0  0  0  0  0  0  0  0  0  0  0
  138.5140  137.3240  156.5880 C   0  0  0  0  0  3  0  0  0  0  0  0
  137.5830  136.4330  157.1330 C   0  0  0  0  0  3  0  0  0  0  0  0
  136.4880  135.9880  156.3830 C   0  0  0  0  0  0  0  0  0  0  0  0
  136.3010  136.4960  155.0860 C   0  0  0  0  0  0  0  0  0  0  0  0
  137.2900  137.3280  154.5170 C   0  0  0  0  0  3  0  0  0  0  0  0
  135.5930  135.0630  156.8430 O   0  0  0  0  0  0  0  0  0  0  0  0
  135.2190  135.0810  158.2110 C   0  0  0  0  0  1  0  0  0  0  0  0
  135.2100  136.2640  154.2730 O   0  0  0  0  0  0  0  0  0  0  0  0
  135.4870  135.7750  152.9550 C   0  0  0  0  0  1  0  0  0  0  0  0
  1  7  1  0  0  0  0
  1  2  1  0  0  0  0
  2  3  2  0  0  0  0
  4  2  1  0  0  0  0
  4 18  1  0  0  0  0
  5  1  1  0  0  0  0
  6  4  1  0  0  0  0
  8 13  1  0  0  0  0
  9  8  2  0  0  0  0
  9 10  1  0  0  0  0
 10 11  2  0  0  0  0
 11 12  1  0  0  0  0
 11  7  1  0  0  0  0
 13 12  2  0  0  0  0
 13 16  1  0  0  0  0
 14 15  1  0  0  0  0
 15  8  1  0  0  0  0
 16 17  1  0  0  0  0
 18 19  1  0  0  0  0
 19 20  1  0  0  0  0
 20 21  2  0  0  0  0
 22 25  1  0  0  0  0
 22 21  1  0  0  0  0
 23 22  2  0  0  0  0
 24 23  1  0  0  0  0
 24 19  2  0  0  0  0
 25 26  1  0  0  0  0
 27 23  1  0  0  0  0
 28 27  1  0  0  0  0
M  END
>  <MODEL>
4

>  <REMARK>
 VINA RESULT:    -6.858      7.594     10.818
 INTER + INTRA:         -10.652
 INTER:                 -10.086
 INTRA:                  -0.566
 UNBOUND:                -0.587
  Name = CHEMBL1430515
  12 active torsions:
  status: ('A' for Active; 'I' for Inactive)
    1  A    between atoms: C_1  and  O_2
    2  A    between atoms: O_2  and  C_3
    3  A    between atoms: C_6  and  C_7
    4  A    between atoms: C_7  and  N_8
    5  A    between atoms: N_11  and  C_12
    6  A    between atoms: C_12  and  C_13
    7  A    between atoms: C_16  and  O_17
    8  A    between atoms: O_17  and  C_18
    9  A    between atoms: C_19  and  O_20
   10  A    between atoms: O_20  and  C_21
   11  A    between atoms: C_24  and  O_25
   12  A    between atoms: O_25  and  C_26
                            x       y       z     vdW  Elec       q    Type
                         _______ _______ _______ _____ _____    ______ ____

>  <TORSDO>
F 8

>  <SCORE>
-6.858

>  <RMSD_LB>
7.594

>  <RMSD_UB>
10.818

$$$$
CHEMBL1430515
 OpenBabel10172500593D

 28 29  0  0  0  0  0  0  0  0999 V2000
  140.5130  137.3790  156.2040 N   0  0  0  0  0  0  0  0  0  0  0  0
  141.1210  138.2600  155.3460 C   0  0  0  0  0  0  0  0  0  0  0  0
  140.6640  139.3380  155.0540 O   0  0  0  0  0  0  0  0  0  0  0  0
  142.3050  137.7750  154.8240 N   0  0  0  0  0  0  0  0  0  0  0  0
  140.9370  136.5070  156.3750 H   0  0  0  0  0  0  0  0  0  0  0  0
  142.6410  136.8960  155.1100 H   0  0  0  0  0  0  0  0  0  0  0  0
  139.2470  137.6990  156.8730 C   0  0  0  0  0  2  0  0  0  0  0  0
  135.7510  135.5390  155.3820 C   0  0  0  0  0  0  0  0  0  0  0  0
  136.1060  135.5140  156.7310 C   0  0  0  0  0  3  0  0  0  0  0  0
  137.2290  136.1940  157.2030 C   0  0  0  0  0  3  0  0  0  0  0  0
  138.0420  136.9340  156.3420 C   0  0  0  0  0  0  0  0  0  0  0  0
  137.6890  136.9530  154.9750 C   0  0  0  0  0  3  0  0  0  0  0  0
  136.5120  136.3260  154.4990 C   0  0  0  0  0  0  0  0  0  0  0  0
  133.7020  135.4370  154.1760 C   0  0  0  0  0  1  0  0  0  0  0  0
  134.7330  134.7610  154.8930 O   0  0  0  0  0  0  0  0  0  0  0  0
  136.2500  136.5420  153.1650 O   0  0  0  0  0  0  0  0  0  0  0  0
  137.3580  136.9400  152.3510 C   0  0  0  0  0  1  0  0  0  0  0  0
  143.0560  138.5560  153.8520 C   0  0  0  0  0  2  0  0  0  0  0  0
  144.5430  138.2740  153.8930 C   0  0  0  0  0  0  0  0  0  0  0  0
  144.9930  136.9610  154.0700 C   0  0  0  0  0  3  0  0  0  0  0  0
  146.3610  136.6620  154.0690 C   0  0  0  0  0  3  0  0  0  0  0  0
  147.3160  137.6650  153.8660 C   0  0  0  0  0  0  0  0  0  0  0  0
  146.8810  138.9750  153.6020 C   0  0  0  0  0  0  0  0  0  0  0  0
  145.5050  139.2800  153.6870 C   0  0  0  0  0  3  0  0  0  0  0  0
  148.6620  137.4390  153.9290 O   0  0  0  0  0  0  0  0  0  0  0  0
  149.3980  137.2930  152.7250 C   0  0  0  0  0  1  0  0  0  0  0  0
  147.6830  140.0420  153.2510 O   0  0  0  0  0  0  0  0  0  0  0  0
  148.1370  140.8800  154.3200 C   0  0  0  0  0  1  0  0  0  0  0  0
  1  5  1  0  0  0  0
  1  7  1  0  0  0  0
  2  1  1  0  0  0  0
  3  2  2  0  0  0  0
  4  6  1  0  0  0  0
  4  2  1  0  0  0  0
  8  9  1  0  0  0  0
  9 10  2  0  0  0  0
 11  7  1  0  0  0  0
 11 10  1  0  0  0  0
 12 11  2  0  0  0  0
 13 12  1  0  0  0  0
 13  8  2  0  0  0  0
 14 15  1  0  0  0  0
 15  8  1  0  0  0  0
 16 13  1  0  0  0  0
 17 16  1  0  0  0  0
 18 19  1  0  0  0  0
 18  4  1  0  0  0  0
 19 20  1  0  0  0  0
 21 20  2  0  0  0  0
 22 25  1  0  0  0  0
 22 21  1  0  0  0  0
 23 24  1  0  0  0  0
 23 22  2  0  0  0  0
 24 19  2  0  0  0  0
 26 25  1  0  0  0  0
 27 23  1  0  0  0  0
 27 28  1  0  0  0  0
M  END
>  <MODEL>
5

>  <REMARK>
 VINA RESULT:    -6.816      7.239     10.499
 INTER + INTRA:         -10.590
 INTER:                 -10.413
 INTRA:                  -0.178
 UNBOUND:                -0.587
  Name = CHEMBL1430515
  12 active torsions:
  status: ('A' for Active; 'I' for Inactive)
    1  A    between atoms: C_1  and  O_2
    2  A    between atoms: O_2  and  C_3
    3  A    between atoms: C_6  and  C_7
    4  A    between atoms: C_7  and  N_8
    5  A    between atoms: N_11  and  C_12
    6  A    between atoms: C_12  and  C_13
    7  A    between atoms: C_16  and  O_17
    8  A    between atoms: O_17  and  C_18
    9  A    between atoms: C_19  and  O_20
   10  A    between atoms: O_20  and  C_21
   11  A    between atoms: C_24  and  O_25
   12  A    between atoms: O_25  and  C_26
                            x       y       z     vdW  Elec       q    Type
                         _______ _______ _______ _____ _____    ______ ____

>  <TORSDO>
F 8

>  <SCORE>
-6.816

>  <RMSD_LB>
7.239

>  <RMSD_UB>
10.499

$$$$
CHEMBL1430515
 OpenBabel10172500593D

 28 29  0  0  0  0  0  0  0  0999 V2000
  141.8980  139.6660  151.5790 N   0  0  0  0  0  0  0  0  0  0  0  0
  141.1880  138.6410  152.1520 C   0  0  0  0  0  0  0  0  0  0  0  0
  141.6080  137.5160  152.2700 O   0  0  0  0  0  0  0  0  0  0  0  0
  139.9240  139.0220  152.5590 N   0  0  0  0  0  0  0  0  0  0  0  0
  141.4780  140.5530  151.4970 H   0  0  0  0  0  0  0  0  0  0  0  0
  139.6380  139.9570  152.4550 H   0  0  0  0  0  0  0  0  0  0  0  0
  143.2660  139.4770  151.0820 C   0  0  0  0  0  2  0  0  0  0  0  0
  146.3140  141.4640  153.5070 C   0  0  0  0  0  0  0  0  0  0  0  0
  145.9000  141.9850  152.2800 C   0  0  0  0  0  3  0  0  0  0  0  0
  144.9360  141.3430  151.5030 C   0  0  0  0  0  3  0  0  0  0  0  0
  144.3410  140.1520  151.9250 C   0  0  0  0  0  0  0  0  0  0  0  0
  144.7650  139.6190  153.1610 C   0  0  0  0  0  3  0  0  0  0  0  0
  145.6890  140.3000  153.9900 C   0  0  0  0  0  0  0  0  0  0  0  0
  148.6690  141.6110  153.8130 C   0  0  0  0  0  1  0  0  0  0  0  0
  147.3580  142.0150  154.2050 O   0  0  0  0  0  0  0  0  0  0  0  0
  145.9030  139.7070  155.2140 O   0  0  0  0  0  0  0  0  0  0  0  0
  146.8820  138.6640  155.2570 C   0  0  0  0  0  1  0  0  0  0  0  0
  139.0120  138.0480  153.1390 C   0  0  0  0  0  2  0  0  0  0  0  0
  138.0230  137.4950  152.1330 C   0  0  0  0  0  0  0  0  0  0  0  0
  138.2710  137.6480  150.7640 C   0  0  0  0  0  3  0  0  0  0  0  0
  137.3980  137.1110  149.8110 C   0  0  0  0  0  3  0  0  0  0  0  0
  136.2680  136.3830  150.1990 C   0  0  0  0  0  0  0  0  0  0  0  0
  136.0480  136.1460  151.5670 C   0  0  0  0  0  0  0  0  0  0  0  0
  136.8870  136.7620  152.5210 C   0  0  0  0  0  3  0  0  0  0  0  0
  135.3460  135.9020  149.3110 O   0  0  0  0  0  0  0  0  0  0  0  0
  134.2700  136.7350  148.9110 C   0  0  0  0  0  1  0  0  0  0  0  0
  135.0640  135.3420  152.1040 O   0  0  0  0  0  0  0  0  0  0  0  0
  134.5100  135.7590  153.3580 C   0  0  0  0  0  1  0  0  0  0  0  0
  1  2  1  0  0  0  0
  2  3  2  0  0  0  0
  2  4  1  0  0  0  0
  4 18  1  0  0  0  0
  5  1  1  0  0  0  0
  6  4  1  0  0  0  0
  7  1  1  0  0  0  0
  7 11  1  0  0  0  0
  8 13  1  0  0  0  0
  8 15  1  0  0  0  0
  9  8  2  0  0  0  0
 10 11  2  0  0  0  0
 10  9  1  0  0  0  0
 11 12  1  0  0  0  0
 12 13  2  0  0  0  0
 13 16  1  0  0  0  0
 14 15  1  0  0  0  0
 16 17  1  0  0  0  0
 19 24  1  0  0  0  0
 19 18  1  0  0  0  0
 20 19  2  0  0  0  0
 21 22  2  0  0  0  0
 21 20  1  0  0  0  0
 22 23  1  0  0  0  0
 23 27  1  0  0  0  0
 23 24  2  0  0  0  0
 25 22  1  0  0  0  0
 26 25  1  0  0  0  0
 27 28  1  0  0  0  0
M  END
>  <MODEL>
6

>  <REMARK>
 VINA RESULT:    -6.761      7.443      9.332
 INTER + INTRA:         -10.510
 INTER:                  -9.883
 INTRA:                  -0.626
 UNBOUND:                -0.587
  Name = CHEMBL1430515
  12 active torsions:
  status: ('A' for Active; 'I' for Inactive)
    1  A    between atoms: C_1  and  O_2
    2  A    between atoms: O_2  and  C_3
    3  A    between atoms: C_6  and  C_7
    4  A    between atoms: C_7  and  N_8
    5  A    between atoms: N_11  and  C_12
    6  A    between atoms: C_12  and  C_13
    7  A    between atoms: C_16  and  O_17
    8  A    between atoms: O_17  and  C_18
    9  A    between atoms: C_19  and  O_20
   10  A    between atoms: O_20  and  C_21
   11  A    between atoms: C_24  and  O_25
   12  A    between atoms: O_25  and  C_26
                            x       y       z     vdW  Elec       q    Type
                         _______ _______ _______ _____ _____    ______ ____

>  <TORSDO>
F 8

>  <SCORE>
-6.761

>  <RMSD_LB>
7.443

>  <RMSD_UB>
9.332

$$$$
CHEMBL1430515
 OpenBabel10172500593D

 28 29  0  0  0  0  0  0  0  0999 V2000
  141.2760  138.1340  154.1830 N   0  0  0  0  0  0  0  0  0  0  0  0
  140.0940  138.4670  154.7950 C   0  0  0  0  0  0  0  0  0  0  0  0
  139.4150  139.4120  154.4730 O   0  0  0  0  0  0  0  0  0  0  0  0
  139.7700  137.6250  155.8400 N   0  0  0  0  0  0  0  0  0  0  0  0
  141.7870  137.3610  154.5170 H   0  0  0  0  0  0  0  0  0  0  0  0
  140.3510  136.8590  156.0480 H   0  0  0  0  0  0  0  0  0  0  0  0
  141.8010  138.8970  153.0460 C   0  0  0  0  0  2  0  0  0  0  0  0
  146.0150  139.9990  153.4350 C   0  0  0  0  0  0  0  0  0  0  0  0
  145.3380  139.3210  154.4500 C   0  0  0  0  0  3  0  0  0  0  0  0
  143.9910  138.9810  154.3290 C   0  0  0  0  0  3  0  0  0  0  0  0
  143.2640  139.3020  153.1800 C   0  0  0  0  0  0  0  0  0  0  0  0
  143.9440  139.9970  152.1560 C   0  0  0  0  0  3  0  0  0  0  0  0
  145.3280  140.2820  152.2400 C   0  0  0  0  0  0  0  0  0  0  0  0
  147.4340  141.8010  154.0690 C   0  0  0  0  0  1  0  0  0  0  0  0
  147.2950  140.4580  153.6080 O   0  0  0  0  0  0  0  0  0  0  0  0
  145.8630  140.8530  151.1080 O   0  0  0  0  0  0  0  0  0  0  0  0
  145.5370  142.2270  150.8700 C   0  0  0  0  0  1  0  0  0  0  0  0
  138.5760  137.8640  156.6370 C   0  0  0  0  0  2  0  0  0  0  0  0
  137.4160  136.9750  156.2410 C   0  0  0  0  0  0  0  0  0  0  0  0
  137.0780  136.8390  154.8900 C   0  0  0  0  0  3  0  0  0  0  0  0
  136.0390  135.9920  154.4900 C   0  0  0  0  0  3  0  0  0  0  0  0
  135.3240  135.2370  155.4260 C   0  0  0  0  0  0  0  0  0  0  0  0
  135.7040  135.2950  156.7780 C   0  0  0  0  0  0  0  0  0  0  0  0
  136.6970  136.2140  157.1810 C   0  0  0  0  0  3  0  0  0  0  0  0
  134.2540  134.4530  155.0960 O   0  0  0  0  0  0  0  0  0  0  0  0
  133.9120  134.2900  153.7290 C   0  0  0  0  0  1  0  0  0  0  0  0
  135.1940  134.5190  157.7990 O   0  0  0  0  0  0  0  0  0  0  0  0
  134.0400  135.0300  158.4760 C   0  0  0  0  0  1  0  0  0  0  0  0
  1  5  1  0  0  0  0
  1  2  1  0  0  0  0
  2  4  1  0  0  0  0
  3  2  2  0  0  0  0
  4  6  1  0  0  0  0
  4 18  1  0  0  0  0
  7 11  1  0  0  0  0
  7  1  1  0  0  0  0
  8 15  1  0  0  0  0
  8  9  1  0  0  0  0
 10  9  2  0  0  0  0
 11 10  1  0  0  0  0
 12 13  1  0  0  0  0
 12 11  2  0  0  0  0
 13  8  2  0  0  0  0
 15 14  1  0  0  0  0
 16 13  1  0  0  0  0
 17 16  1  0  0  0  0
 19 18  1  0  0  0  0
 19 24  1  0  0  0  0
 20 19  2  0  0  0  0
 21 20  1  0  0  0  0
 21 22  2  0  0  0  0
 22 23  1  0  0  0  0
 23 24  2  0  0  0  0
 23 27  1  0  0  0  0
 25 22  1  0  0  0  0
 26 25  1  0  0  0  0
 27 28  1  0  0  0  0
M  END
>  <MODEL>
7

>  <REMARK>
 VINA RESULT:    -6.626      6.838     10.115
 INTER + INTRA:         -10.311
 INTER:                  -9.783
 INTRA:                  -0.528
 UNBOUND:                -0.587
  Name = CHEMBL1430515
  12 active torsions:
  status: ('A' for Active; 'I' for Inactive)
    1  A    between atoms: C_1  and  O_2
    2  A    between atoms: O_2  and  C_3
    3  A    between atoms: C_6  and  C_7
    4  A    between atoms: C_7  and  N_8
    5  A    between atoms: N_11  and  C_12
    6  A    between atoms: C_12  and  C_13
    7  A    between atoms: C_16  and  O_17
    8  A    between atoms: O_17  and  C_18
    9  A    between atoms: C_19  and  O_20
   10  A    between atoms: O_20  and  C_21
   11  A    between atoms: C_24  and  O_25
   12  A    between atoms: O_25  and  C_26
                            x       y       z     vdW  Elec       q    Type
                         _______ _______ _______ _____ _____    ______ ____

>  <TORSDO>
F 8

>  <SCORE>
-6.626

>  <RMSD_LB>
6.838

>  <RMSD_UB>
10.115

$$$$
CHEMBL1430515
 OpenBabel10172500593D

 28 29  0  0  0  0  0  0  0  0999 V2000
  140.6640  137.4680  155.9710 N   0  0  0  0  0  0  0  0  0  0  0  0
  141.0010  138.3880  155.0100 C   0  0  0  0  0  0  0  0  0  0  0  0
  140.4880  139.4760  154.9140 O   0  0  0  0  0  0  0  0  0  0  0  0
  141.9720  137.9310  154.1410 N   0  0  0  0  0  0  0  0  0  0  0  0
  141.1110  136.5900  155.9710 H   0  0  0  0  0  0  0  0  0  0  0  0
  142.3690  137.0410  154.2770 H   0  0  0  0  0  0  0  0  0  0  0  0
  139.6550  137.7540  156.9970 C   0  0  0  0  0  2  0  0  0  0  0  0
  135.8640  135.6650  156.3790 C   0  0  0  0  0  0  0  0  0  0  0  0
  136.7620  135.8790  155.3320 C   0  0  0  0  0  3  0  0  0  0  0  0
  137.9660  136.5560  155.5290 C   0  0  0  0  0  3  0  0  0  0  0  0
  138.3240  137.0450  156.7870 C   0  0  0  0  0  0  0  0  0  0  0  0
  137.4120  136.8380  157.8460 C   0  0  0  0  0  3  0  0  0  0  0  0
  136.2230  136.0890  157.6710 C   0  0  0  0  0  0  0  0  0  0  0  0
  134.1630  135.1110  154.8100 C   0  0  0  0  0  1  0  0  0  0  0  0
  134.6220  135.1270  156.1610 O   0  0  0  0  0  0  0  0  0  0  0  0
  135.5080  135.8770  158.8280 O   0  0  0  0  0  0  0  0  0  0  0  0
  135.8490  134.7130  159.5870 C   0  0  0  0  0  1  0  0  0  0  0  0
  142.4110  138.7560  153.0260 C   0  0  0  0  0  2  0  0  0  0  0  0
  143.8450  139.2210  153.1660 C   0  0  0  0  0  0  0  0  0  0  0  0
  144.3670  140.1390  152.2480 C   0  0  0  0  0  3  0  0  0  0  0  0
  145.6750  140.6200  152.3760 C   0  0  0  0  0  3  0  0  0  0  0  0
  146.4890  140.2180  153.4400 C   0  0  0  0  0  0  0  0  0  0  0  0
  145.9550  139.3630  154.4190 C   0  0  0  0  0  0  0  0  0  0  0  0
  144.6650  138.8190  154.2360 C   0  0  0  0  0  3  0  0  0  0  0  0
  147.7950  140.6000  153.5690 O   0  0  0  0  0  0  0  0  0  0  0  0
  148.0980  141.8280  154.2120 C   0  0  0  0  0  1  0  0  0  0  0  0
  146.5760  138.9820  155.5910 O   0  0  0  0  0  0  0  0  0  0  0  0
  147.4680  137.8640  155.5090 C   0  0  0  0  0  1  0  0  0  0  0  0
  1  7  1  0  0  0  0
  2  1  1  0  0  0  0
  3  2  2  0  0  0  0
  4  6  1  0  0  0  0
  4  2  1  0  0  0  0
  5  1  1  0  0  0  0
  8 13  1  0  0  0  0
  9 10  1  0  0  0  0
  9  8  2  0  0  0  0
 10 11  2  0  0  0  0
 11  7  1  0  0  0  0
 11 12  1  0  0  0  0
 13 12  2  0  0  0  0
 13 16  1  0  0  0  0
 14 15  1  0  0  0  0
 15  8  1  0  0  0  0
 16 17  1  0  0  0  0
 18 19  1  0  0  0  0
 18  4  1  0  0  0  0
 19 24  1  0  0  0  0
 20 21  1  0  0  0  0
 20 19  2  0  0  0  0
 21 22  2  0  0  0  0
 22 25  1  0  0  0  0
 22 23  1  0  0  0  0
 23 27  1  0  0  0  0
 24 23  2  0  0  0  0
 25 26  1  0  0  0  0
 28 27  1  0  0  0  0
M  END
>  <MODEL>
8

>  <REMARK>
 VINA RESULT:    -6.611      6.886     10.321
 INTER + INTRA:         -10.289
 INTER:                  -9.676
 INTRA:                  -0.613
 UNBOUND:                -0.587
  Name = CHEMBL1430515
  12 active torsions:
  status: ('A' for Active; 'I' for Inactive)
    1  A    between atoms: C_1  and  O_2
    2  A    between atoms: O_2  and  C_3
    3  A    between atoms: C_6  and  C_7
    4  A    between atoms: C_7  and  N_8
    5  A    between atoms: N_11  and  C_12
    6  A    between atoms: C_12  and  C_13
    7  A    between atoms: C_16  and  O_17
    8  A    between atoms: O_17  and  C_18
    9  A    between atoms: C_19  and  O_20
   10  A    between atoms: O_20  and  C_21
   11  A    between atoms: C_24  and  O_25
   12  A    between atoms: O_25  and  C_26
                            x       y       z     vdW  Elec       q    Type
                         _______ _______ _______ _____ _____    ______ ____

>  <TORSDO>
F 8

>  <SCORE>
-6.611

>  <RMSD_LB>
6.886

>  <RMSD_UB>
10.321

$$$$
CHEMBL1430515
 OpenBabel10172500593D

 28 29  0  0  0  0  0  0  0  0999 V2000
  141.8900  138.0420  153.7320 N   0  0  0  0  0  0  0  0  0  0  0  0
  140.5370  138.0320  153.5030 C   0  0  0  0  0  0  0  0  0  0  0  0
  140.0420  137.8860  152.4120 O   0  0  0  0  0  0  0  0  0  0  0  0
  139.7940  138.2350  154.6490 N   0  0  0  0  0  0  0  0  0  0  0  0
  142.2200  138.1900  154.6480 H   0  0  0  0  0  0  0  0  0  0  0  0
  140.2490  138.3310  155.5160 H   0  0  0  0  0  0  0  0  0  0  0  0
  142.8600  137.8400  152.6500 C   0  0  0  0  0  2  0  0  0  0  0  0
  145.4430  141.2930  151.9250 C   0  0  0  0  0  0  0  0  0  0  0  0
  144.3960  140.9670  151.0610 C   0  0  0  0  0  3  0  0  0  0  0  0
  143.5810  139.8590  151.2880 C   0  0  0  0  0  3  0  0  0  0  0  0
  143.7770  139.0300  152.3950 C   0  0  0  0  0  0  0  0  0  0  0  0
  144.8410  139.3520  153.2650 C   0  0  0  0  0  3  0  0  0  0  0  0
  145.6280  140.5160  153.0830 C   0  0  0  0  0  0  0  0  0  0  0  0
  146.6950  142.4420  150.2600 C   0  0  0  0  0  1  0  0  0  0  0  0
  146.3310  142.2960  151.6310 O   0  0  0  0  0  0  0  0  0  0  0  0
  146.5420  140.7490  154.0850 O   0  0  0  0  0  0  0  0  0  0  0  0
  147.0560  139.5980  154.7630 C   0  0  0  0  0  1  0  0  0  0  0  0
  138.3420  138.3090  154.5820 C   0  0  0  0  0  2  0  0  0  0  0  0
  137.6600  137.4720  155.6440 C   0  0  0  0  0  0  0  0  0  0  0  0
  137.0000  136.2940  155.2770 C   0  0  0  0  0  3  0  0  0  0  0  0
  136.3960  135.4780  156.2410 C   0  0  0  0  0  3  0  0  0  0  0  0
  136.4590  135.8030  157.6000 C   0  0  0  0  0  0  0  0  0  0  0  0
  137.1900  136.9360  157.9960 C   0  0  0  0  0  0  0  0  0  0  0  0
  137.7220  137.7960  157.0110 C   0  0  0  0  0  3  0  0  0  0  0  0
  135.8240  135.0790  158.5720 O   0  0  0  0  0  0  0  0  0  0  0  0
  134.4070  135.0490  158.5980 C   0  0  0  0  0  1  0  0  0  0  0  0
  137.4580  137.3160  159.2950 O   0  0  0  0  0  0  0  0  0  0  0  0
  136.4870  138.1560  159.9300 C   0  0  0  0  0  1  0  0  0  0  0  0
  1  5  1  0  0  0  0
  2  1  1  0  0  0  0
  2  4  1  0  0  0  0
  3  2  2  0  0  0  0
  4  6  1  0  0  0  0
  7  1  1  0  0  0  0
  8 13  1  0  0  0  0
  9 10  1  0  0  0  0
  9  8  2  0  0  0  0
 10 11  2  0  0  0  0
 11  7  1  0  0  0  0
 11 12  1  0  0  0  0
 13 12  2  0  0  0  0
 13 16  1  0  0  0  0
 14 15  1  0  0  0  0
 15  8  1  0  0  0  0
 16 17  1  0  0  0  0
 18  4  1  0  0  0  0
 18 19  1  0  0  0  0
 19 24  1  0  0  0  0
 20 19  2  0  0  0  0
 20 21  1  0  0  0  0
 21 22  2  0  0  0  0
 22 23  1  0  0  0  0
 22 25  1  0  0  0  0
 23 27  1  0  0  0  0
 24 23  2  0  0  0  0
 25 26  1  0  0  0  0
 27 28  1  0  0  0  0
M  END
>  <MODEL>
9

>  <REMARK>
 VINA RESULT:    -6.525      7.089     10.995
 INTER + INTRA:         -10.164
 INTER:                  -9.577
 INTRA:                  -0.587
 UNBOUND:                -0.587
  Name = CHEMBL1430515
  12 active torsions:
  status: ('A' for Active; 'I' for Inactive)
    1  A    between atoms: C_1  and  O_2
    2  A    between atoms: O_2  and  C_3
    3  A    between atoms: C_6  and  C_7
    4  A    between atoms: C_7  and  N_8
    5  A    between atoms: N_11  and  C_12
    6  A    between atoms: C_12  and  C_13
    7  A    between atoms: C_16  and  O_17
    8  A    between atoms: O_17  and  C_18
    9  A    between atoms: C_19  and  O_20
   10  A    between atoms: O_20  and  C_21
   11  A    between atoms: C_24  and  O_25
   12  A    between atoms: O_25  and  C_26
                            x       y       z     vdW  Elec       q    Type
                         _______ _______ _______ _____ _____    ______ ____

>  <TORSDO>
F 8

>  <SCORE>
-6.525

>  <RMSD_LB>
7.089

>  <RMSD_UB>
10.995

$$$$
