CHEMBL80341
 OpenBabel10172500033D

 24 25  0  0  0  0  0  0  0  0999 V2000
  142.7510  139.7030  151.9040 N   0  0  0  0  0  0  0  0  0  0  0  0
  142.3680  138.3850  151.9290 C   0  0  0  0  0  0  0  0  0  0  0  0
  142.9470  137.4830  151.3390 O   0  0  0  0  0  0  0  0  0  0  0  0
  142.2080  140.3660  152.3890 H   0  0  0  0  0  0  0  0  0  0  0  0
  141.1580  138.1520  152.7570 C   0  0  0  0  0  3  0  0  0  0  0  0
  141.2240  138.2600  154.0940 C   0  0  0  0  0  3  0  0  0  0  0  0
  140.0760  138.0780  154.9960 C   0  0  0  0  0  0  0  0  0  0  0  0
  140.2200  137.6250  156.3150 C   0  0  0  0  0  3  0  0  0  0  0  0
  139.1030  137.4750  157.1440 C   0  0  0  0  0  3  0  0  0  0  0  0
  137.8350  137.7920  156.6640 C   0  0  0  0  0  0  0  0  0  0  0  0
  136.4650  137.6010  157.6840 Cl  0  0  0  0  0  0  0  0  0  0  0  0
  137.6760  138.2670  155.3650 C   0  0  0  0  0  3  0  0  0  0  0  0
  138.7940  138.4140  154.5360 C   0  0  0  0  0  3  0  0  0  0  0  0
  143.9260  140.1490  151.1870 C   0  0  0  0  0  2  0  0  0  0  0  0
  146.4440  140.2150  154.0640 C   0  0  0  0  0  0  0  0  0  0  0  0
  145.4580  139.7870  153.1690 C   0  0  0  0  0  3  0  0  0  0  0  0
  145.0300  140.6070  152.1090 C   0  0  0  0  0  0  0  0  0  0  0  0
  145.6060  141.8770  151.9610 C   0  0  0  0  0  3  0  0  0  0  0  0
  146.5850  142.3190  152.8530 C   0  0  0  0  0  3  0  0  0  0  0  0
  146.9970  141.4890  153.8960 C   0  0  0  0  0  0  0  0  0  0  0  0
  147.8440  138.4440  154.8300 C   0  0  0  0  0  1  0  0  0  0  0  0
  146.9160  139.4800  155.1210 O   0  0  0  0  0  0  0  0  0  0  0  0
  147.9520  141.9260  154.7750 O   0  0  0  0  0  0  0  0  0  0  0  0
  147.9100  141.6740  155.6760 H   0  0  0  0  0  0  0  0  0  0  0  0
  1  2  1  0  0  0  0
  1  4  1  0  0  0  0
  2  5  1  0  0  0  0
  3  2  2  0  0  0  0
  5  6  2  0  0  0  0
  6  7  1  0  0  0  0
  7  8  1  0  0  0  0
  8  9  2  0  0  0  0
 10  9  1  0  0  0  0
 10 11  1  0  0  0  0
 12 10  2  0  0  0  0
 13  7  2  0  0  0  0
 13 12  1  0  0  0  0
 14  1  1  0  0  0  0
 14 17  1  0  0  0  0
 15 22  1  0  0  0  0
 16 15  2  0  0  0  0
 17 16  1  0  0  0  0
 18 17  2  0  0  0  0
 18 19  1  0  0  0  0
 19 20  2  0  0  0  0
 20 15  1  0  0  0  0
 20 23  1  0  0  0  0
 21 22  1  0  0  0  0
 23 24  1  0  0  0  0
M  END
>  <MODEL>
1

>  <REMARK>
 VINA RESULT:    -7.451      0.000      0.000
 INTER + INTRA:         -10.392
 INTER:                  -9.798
 INTRA:                  -0.594
 UNBOUND:                -0.546
  Name = CHEMBL80341
  7 active torsions:
  status: ('A' for Active; 'I' for Inactive)
    1  A    between atoms: C_1  and  O_2
    2  A    between atoms: O_2  and  C_3
    3  A    between atoms: C_5  and  C_6
    4  A    between atoms: C_6  and  N_7
    5  A    between atoms: C_8  and  C_10
    6  A    between atoms: C_11  and  C_12
    7  A    between atoms: C_21  and  O_22
                            x       y       z     vdW  Elec       q    Type
                         _______ _______ _______ _____ _____    ______ ____

>  <TORSDO>
F 6

>  <SCORE>
-7.451

>  <RMSD_LB>
0.000

>  <RMSD_UB>
0.000

$$$$
CHEMBL80341
 OpenBabel10172500033D

 24 25  0  0  0  0  0  0  0  0999 V2000
  135.7130  135.2490  154.4980 N   0  0  0  0  0  0  0  0  0  0  0  0
  134.7430  134.2920  154.3330 C   0  0  0  0  0  0  0  0  0  0  0  0
  134.2260  133.6640  155.2470 O   0  0  0  0  0  0  0  0  0  0  0  0
  136.0920  135.6860  153.7010 H   0  0  0  0  0  0  0  0  0  0  0  0
  134.3740  134.0840  152.9100 C   0  0  0  0  0  3  0  0  0  0  0  0
  135.2870  134.2680  151.9420 C   0  0  0  0  0  3  0  0  0  0  0  0
  135.0270  134.0580  150.5090 C   0  0  0  0  0  0  0  0  0  0  0  0
  135.7120  134.7620  149.5100 C   0  0  0  0  0  3  0  0  0  0  0  0
  135.4420  134.5250  148.1570 C   0  0  0  0  0  3  0  0  0  0  0  0
  134.4950  133.5710  147.7960 C   0  0  0  0  0  0  0  0  0  0  0  0
  134.1620  133.2870  146.1330 Cl  0  0  0  0  0  0  0  0  0  0  0  0
  133.8220  132.8460  148.7750 C   0  0  0  0  0  3  0  0  0  0  0  0
  134.0920  133.0850  150.1270 C   0  0  0  0  0  3  0  0  0  0  0  0
  136.1960  135.6370  155.8050 C   0  0  0  0  0  2  0  0  0  0  0  0
  138.7620  138.1650  154.5210 C   0  0  0  0  0  0  0  0  0  0  0  0
  137.6140  137.3720  154.6290 C   0  0  0  0  0  3  0  0  0  0  0  0
  137.4150  136.5250  155.7350 C   0  0  0  0  0  0  0  0  0  0  0  0
  138.3940  136.4790  156.7380 C   0  0  0  0  0  3  0  0  0  0  0  0
  139.5480  137.2590  156.6370 C   0  0  0  0  0  3  0  0  0  0  0  0
  139.7250  138.0940  155.5340 C   0  0  0  0  0  0  0  0  0  0  0  0
  139.1730  138.4390  152.1890 C   0  0  0  0  0  1  0  0  0  0  0  0
  139.0330  139.0150  153.4810 O   0  0  0  0  0  0  0  0  0  0  0  0
  140.8600  138.8540  155.4330 O   0  0  0  0  0  0  0  0  0  0  0  0
  141.5060  138.6460  154.7870 H   0  0  0  0  0  0  0  0  0  0  0  0
  1 14  1  0  0  0  0
  2  1  1  0  0  0  0
  2  3  2  0  0  0  0
  4  1  1  0  0  0  0
  5  2  1  0  0  0  0
  6  5  2  0  0  0  0
  7  6  1  0  0  0  0
  8  7  2  0  0  0  0
  9  8  1  0  0  0  0
 10  9  2  0  0  0  0
 10 12  1  0  0  0  0
 11 10  1  0  0  0  0
 12 13  2  0  0  0  0
 13  7  1  0  0  0  0
 15 16  2  0  0  0  0
 15 20  1  0  0  0  0
 16 17  1  0  0  0  0
 17 14  1  0  0  0  0
 17 18  2  0  0  0  0
 19 18  1  0  0  0  0
 20 19  2  0  0  0  0
 21 22  1  0  0  0  0
 22 15  1  0  0  0  0
 23 20  1  0  0  0  0
 24 23  1  0  0  0  0
M  END
>  <MODEL>
2

>  <REMARK>
 VINA RESULT:    -7.442      6.405      9.128
 INTER + INTRA:         -10.380
 INTER:                  -9.796
 INTRA:                  -0.584
 UNBOUND:                -0.546
  Name = CHEMBL80341
  7 active torsions:
  status: ('A' for Active; 'I' for Inactive)
    1  A    between atoms: C_1  and  O_2
    2  A    between atoms: O_2  and  C_3
    3  A    between atoms: C_5  and  C_6
    4  A    between atoms: C_6  and  N_7
    5  A    between atoms: C_8  and  C_10
    6  A    between atoms: C_11  and  C_12
    7  A    between atoms: C_21  and  O_22
                            x       y       z     vdW  Elec       q    Type
                         _______ _______ _______ _____ _____    ______ ____

>  <TORSDO>
F 6

>  <SCORE>
-7.442

>  <RMSD_LB>
6.405

>  <RMSD_UB>
9.128

$$$$
CHEMBL80341
 OpenBabel10172500033D

 24 25  0  0  0  0  0  0  0  0999 V2000
  138.1640  137.5940  154.5160 N   0  0  0  0  0  0  0  0  0  0  0  0
  138.9680  138.5580  153.9610 C   0  0  0  0  0  0  0  0  0  0  0  0
  139.1410  139.6730  154.4330 O   0  0  0  0  0  0  0  0  0  0  0  0
  138.0640  136.7310  154.0510 H   0  0  0  0  0  0  0  0  0  0  0  0
  139.6230  138.1100  152.7050 C   0  0  0  0  0  3  0  0  0  0  0  0
  140.9240  137.7790  152.7040 C   0  0  0  0  0  3  0  0  0  0  0  0
  141.6540  137.2960  151.5210 C   0  0  0  0  0  0  0  0  0  0  0  0
  143.0390  137.0850  151.5270 C   0  0  0  0  0  3  0  0  0  0  0  0
  143.6940  136.6150  150.3830 C   0  0  0  0  0  3  0  0  0  0  0  0
  142.9640  136.3400  149.2300 C   0  0  0  0  0  0  0  0  0  0  0  0
  143.7730  135.7680  147.8250 Cl  0  0  0  0  0  0  0  0  0  0  0  0
  141.5840  136.5210  149.2140 C   0  0  0  0  0  3  0  0  0  0  0  0
  140.9310  136.9920  150.3580 C   0  0  0  0  0  3  0  0  0  0  0  0
  137.4580  137.8040  155.7610 C   0  0  0  0  0  2  0  0  0  0  0  0
  134.6270  135.2660  155.3570 C   0  0  0  0  0  0  0  0  0  0  0  0
  135.5790  136.2530  155.0790 C   0  0  0  0  0  3  0  0  0  0  0  0
  136.4750  136.7000  156.0670 C   0  0  0  0  0  0  0  0  0  0  0  0
  136.4000  136.1430  157.3510 C   0  0  0  0  0  3  0  0  0  0  0  0
  135.4490  135.1630  157.6440 C   0  0  0  0  0  3  0  0  0  0  0  0
  134.5710  134.7320  156.6500 C   0  0  0  0  0  0  0  0  0  0  0  0
  133.9480  135.0580  153.0820 C   0  0  0  0  0  1  0  0  0  0  0  0
  133.7190  134.7750  154.4550 O   0  0  0  0  0  0  0  0  0  0  0  0
  133.6330  133.7770  156.9390 O   0  0  0  0  0  0  0  0  0  0  0  0
  133.0840  133.4380  156.2600 H   0  0  0  0  0  0  0  0  0  0  0  0
  1 14  1  0  0  0  0
  2  3  2  0  0  0  0
  2  1  1  0  0  0  0
  4  1  1  0  0  0  0
  5  2  1  0  0  0  0
  6  5  2  0  0  0  0
  7  8  1  0  0  0  0
  7  6  1  0  0  0  0
  9  8  2  0  0  0  0
 10  9  1  0  0  0  0
 11 10  1  0  0  0  0
 12 10  2  0  0  0  0
 12 13  1  0  0  0  0
 13  7  2  0  0  0  0
 14 17  1  0  0  0  0
 15 20  1  0  0  0  0
 16 15  2  0  0  0  0
 16 17  1  0  0  0  0
 17 18  2  0  0  0  0
 18 19  1  0  0  0  0
 20 23  1  0  0  0  0
 20 19  2  0  0  0  0
 21 22  1  0  0  0  0
 22 15  1  0  0  0  0
 24 23  1  0  0  0  0
M  END
>  <MODEL>
3

>  <REMARK>
 VINA RESULT:    -7.411      5.218      9.996
 INTER + INTRA:         -10.339
 INTER:                  -9.903
 INTRA:                  -0.437
 UNBOUND:                -0.546
  Name = CHEMBL80341
  7 active torsions:
  status: ('A' for Active; 'I' for Inactive)
    1  A    between atoms: C_1  and  O_2
    2  A    between atoms: O_2  and  C_3
    3  A    between atoms: C_5  and  C_6
    4  A    between atoms: C_6  and  N_7
    5  A    between atoms: C_8  and  C_10
    6  A    between atoms: C_11  and  C_12
    7  A    between atoms: C_21  and  O_22
                            x       y       z     vdW  Elec       q    Type
                         _______ _______ _______ _____ _____    ______ ____

>  <TORSDO>
F 6

>  <SCORE>
-7.411

>  <RMSD_LB>
5.218

>  <RMSD_UB>
9.996

$$$$
CHEMBL80341
 OpenBabel10172500033D

 24 25  0  0  0  0  0  0  0  0999 V2000
  134.6340  134.6280  152.2960 N   0  0  0  0  0  0  0  0  0  0  0  0
  134.7930  134.7900  153.6490 C   0  0  0  0  0  0  0  0  0  0  0  0
  133.9440  134.5150  154.4860 O   0  0  0  0  0  0  0  0  0  0  0  0
  135.3630  134.9020  151.6940 H   0  0  0  0  0  0  0  0  0  0  0  0
  136.1220  135.3470  154.0110 C   0  0  0  0  0  3  0  0  0  0  0  0
  136.4050  136.6340  153.7570 C   0  0  0  0  0  3  0  0  0  0  0  0
  137.6780  137.2850  154.1050 C   0  0  0  0  0  0  0  0  0  0  0  0
  138.1340  137.3870  155.4260 C   0  0  0  0  0  3  0  0  0  0  0  0
  139.3570  138.0050  155.7140 C   0  0  0  0  0  3  0  0  0  0  0  0
  140.1380  138.5120  154.6790 C   0  0  0  0  0  0  0  0  0  0  0  0
  141.6370  139.2750  155.0370 Cl  0  0  0  0  0  0  0  0  0  0  0  0
  139.7120  138.3970  153.3590 C   0  0  0  0  0  3  0  0  0  0  0  0
  138.4890  137.7810  153.0730 C   0  0  0  0  0  3  0  0  0  0  0  0
  133.4290  134.0660  151.7250 C   0  0  0  0  0  2  0  0  0  0  0  0
  133.1240  134.7480  147.9750 C   0  0  0  0  0  0  0  0  0  0  0  0
  133.0940  134.9120  149.3640 C   0  0  0  0  0  3  0  0  0  0  0  0
  133.5220  133.8890  150.2290 C   0  0  0  0  0  0  0  0  0  0  0  0
  133.9800  132.6840  149.6770 C   0  0  0  0  0  3  0  0  0  0  0  0
  134.0080  132.5040  148.2930 C   0  0  0  0  0  3  0  0  0  0  0  0
  133.5810  133.5320  147.4530 C   0  0  0  0  0  0  0  0  0  0  0  0
  133.3060  136.9840  147.1710 C   0  0  0  0  0  1  0  0  0  0  0  0
  132.7270  135.6910  147.0640 O   0  0  0  0  0  0  0  0  0  0  0  0
  133.6010  133.3520  146.0950 O   0  0  0  0  0  0  0  0  0  0  0  0
  133.0770  133.8970  145.5420 H   0  0  0  0  0  0  0  0  0  0  0  0
  1  2  1  0  0  0  0
  2  5  1  0  0  0  0
  2  3  2  0  0  0  0
  4  1  1  0  0  0  0
  6  5  2  0  0  0  0
  6  7  1  0  0  0  0
  7  8  1  0  0  0  0
  8  9  2  0  0  0  0
 10 11  1  0  0  0  0
 10  9  1  0  0  0  0
 12 10  2  0  0  0  0
 13 12  1  0  0  0  0
 13  7  2  0  0  0  0
 14  1  1  0  0  0  0
 15 16  1  0  0  0  0
 16 17  2  0  0  0  0
 17 14  1  0  0  0  0
 18 17  1  0  0  0  0
 19 18  2  0  0  0  0
 20 15  2  0  0  0  0
 20 19  1  0  0  0  0
 22 21  1  0  0  0  0
 22 15  1  0  0  0  0
 23 20  1  0  0  0  0
 24 23  1  0  0  0  0
M  END
>  <MODEL>
4

>  <REMARK>
 VINA RESULT:    -7.172      7.286     11.390
 INTER + INTRA:         -10.024
 INTER:                  -9.594
 INTRA:                  -0.431
 UNBOUND:                -0.546
  Name = CHEMBL80341
  7 active torsions:
  status: ('A' for Active; 'I' for Inactive)
    1  A    between atoms: C_1  and  O_2
    2  A    between atoms: O_2  and  C_3
    3  A    between atoms: C_5  and  C_6
    4  A    between atoms: C_6  and  N_7
    5  A    between atoms: C_8  and  C_10
    6  A    between atoms: C_11  and  C_12
    7  A    between atoms: C_21  and  O_22
                            x       y       z     vdW  Elec       q    Type
                         _______ _______ _______ _____ _____    ______ ____

>  <TORSDO>
F 6

>  <SCORE>
-7.172

>  <RMSD_LB>
7.286

>  <RMSD_UB>
11.390

$$$$
CHEMBL80341
 OpenBabel10172500033D

 24 25  0  0  0  0  0  0  0  0999 V2000
  133.9130  136.1470  151.2050 N   0  0  0  0  0  0  0  0  0  0  0  0
  134.4420  135.2630  152.1120 C   0  0  0  0  0  0  0  0  0  0  0  0
  133.9680  134.1650  152.3680 O   0  0  0  0  0  0  0  0  0  0  0  0
  134.3480  137.0220  151.0820 H   0  0  0  0  0  0  0  0  0  0  0  0
  135.6700  135.7780  152.7700 C   0  0  0  0  0  3  0  0  0  0  0  0
  135.7330  135.8630  154.1090 C   0  0  0  0  0  3  0  0  0  0  0  0
  136.9130  136.3290  154.8530 C   0  0  0  0  0  0  0  0  0  0  0  0
  137.7550  137.3400  154.3710 C   0  0  0  0  0  3  0  0  0  0  0  0
  138.8620  137.7620  155.1160 C   0  0  0  0  0  3  0  0  0  0  0  0
  139.1250  137.1850  156.3550 C   0  0  0  0  0  0  0  0  0  0  0  0
  140.4900  137.7030  157.2640 Cl  0  0  0  0  0  0  0  0  0  0  0  0
  138.2860  136.1970  156.8600 C   0  0  0  0  0  3  0  0  0  0  0  0
  137.1800  135.7750  156.1140 C   0  0  0  0  0  3  0  0  0  0  0  0
  132.7370  135.8340  150.4220 C   0  0  0  0  0  2  0  0  0  0  0  0
  133.8590  135.1000  146.8410 C   0  0  0  0  0  0  0  0  0  0  0  0
  133.5960  135.7660  148.0430 C   0  0  0  0  0  3  0  0  0  0  0  0
  133.0650  135.0850  149.1530 C   0  0  0  0  0  0  0  0  0  0  0  0
  132.7940  133.7140  149.0400 C   0  0  0  0  0  3  0  0  0  0  0  0
  133.0450  133.0390  147.8440 C   0  0  0  0  0  3  0  0  0  0  0  0
  133.5740  133.7320  146.7550 C   0  0  0  0  0  0  0  0  0  0  0  0
  133.5740  136.6650  145.0670 C   0  0  0  0  0  1  0  0  0  0  0  0
  134.3740  135.6870  145.7150 O   0  0  0  0  0  0  0  0  0  0  0  0
  133.8120  133.0710  145.5790 O   0  0  0  0  0  0  0  0  0  0  0  0
  134.0970  133.5460  144.8240 H   0  0  0  0  0  0  0  0  0  0  0  0
  1  2  1  0  0  0  0
  2  3  2  0  0  0  0
  2  5  1  0  0  0  0
  4  1  1  0  0  0  0
  5  6  2  0  0  0  0
  6  7  1  0  0  0  0
  7 13  1  0  0  0  0
  8  7  2  0  0  0  0
  8  9  1  0  0  0  0
  9 10  2  0  0  0  0
 10 12  1  0  0  0  0
 10 11  1  0  0  0  0
 13 12  2  0  0  0  0
 14  1  1  0  0  0  0
 15 16  1  0  0  0  0
 16 17  2  0  0  0  0
 17 14  1  0  0  0  0
 18 17  1  0  0  0  0
 19 18  2  0  0  0  0
 20 15  2  0  0  0  0
 20 19  1  0  0  0  0
 21 22  1  0  0  0  0
 22 15  1  0  0  0  0
 23 20  1  0  0  0  0
 24 23  1  0  0  0  0
M  END
>  <MODEL>
5

>  <REMARK>
 VINA RESULT:    -7.136      7.543     11.461
 INTER + INTRA:          -9.976
 INTER:                  -9.459
 INTRA:                  -0.517
 UNBOUND:                -0.546
  Name = CHEMBL80341
  7 active torsions:
  status: ('A' for Active; 'I' for Inactive)
    1  A    between atoms: C_1  and  O_2
    2  A    between atoms: O_2  and  C_3
    3  A    between atoms: C_5  and  C_6
    4  A    between atoms: C_6  and  N_7
    5  A    between atoms: C_8  and  C_10
    6  A    between atoms: C_11  and  C_12
    7  A    between atoms: C_21  and  O_22
                            x       y       z     vdW  Elec       q    Type
                         _______ _______ _______ _____ _____    ______ ____

>  <TORSDO>
F 6

>  <SCORE>
-7.136

>  <RMSD_LB>
7.543

>  <RMSD_UB>
11.461

$$$$
CHEMBL80341
 OpenBabel10172500033D

 24 25  0  0  0  0  0  0  0  0999 V2000
  138.8720  137.6060  154.1740 N   0  0  0  0  0  0  0  0  0  0  0  0
  139.7660  138.6400  154.0480 C   0  0  0  0  0  0  0  0  0  0  0  0
  139.6100  139.7540  154.5280 O   0  0  0  0  0  0  0  0  0  0  0  0
  139.0680  136.7490  153.7300 H   0  0  0  0  0  0  0  0  0  0  0  0
  140.9650  138.2710  153.2530 C   0  0  0  0  0  3  0  0  0  0  0  0
  142.0680  137.8150  153.8690 C   0  0  0  0  0  3  0  0  0  0  0  0
  143.2920  137.3960  153.1690 C   0  0  0  0  0  0  0  0  0  0  0  0
  144.4710  137.0630  153.8510 C   0  0  0  0  0  3  0  0  0  0  0  0
  145.6110  136.6590  153.1470 C   0  0  0  0  0  3  0  0  0  0  0  0
  145.5760  136.5720  151.7580 C   0  0  0  0  0  0  0  0  0  0  0  0
  146.9810  136.0810  150.8980 Cl  0  0  0  0  0  0  0  0  0  0  0  0
  144.4060  136.8760  151.0680 C   0  0  0  0  0  3  0  0  0  0  0  0
  143.2670  137.2810  151.7720 C   0  0  0  0  0  3  0  0  0  0  0  0
  137.6500  137.7350  154.9390 C   0  0  0  0  0  2  0  0  0  0  0  0
  135.5100  135.1170  153.1530 C   0  0  0  0  0  0  0  0  0  0  0  0
  136.4320  136.1410  153.3960 C   0  0  0  0  0  3  0  0  0  0  0  0
  136.6930  136.5920  154.7030 C   0  0  0  0  0  0  0  0  0  0  0  0
  136.0070  135.9990  155.7730 C   0  0  0  0  0  3  0  0  0  0  0  0
  135.0780  134.9820  155.5430 C   0  0  0  0  0  3  0  0  0  0  0  0
  134.8360  134.5480  154.2400 C   0  0  0  0  0  0  0  0  0  0  0  0
  136.2160  134.6540  150.9240 C   0  0  0  0  0  1  0  0  0  0  0  0
  135.1970  134.6210  151.9140 O   0  0  0  0  0  0  0  0  0  0  0  0
  133.9190  133.5560  154.0130 O   0  0  0  0  0  0  0  0  0  0  0  0
  134.2070  132.6970  153.7760 H   0  0  0  0  0  0  0  0  0  0  0  0
  1 14  1  0  0  0  0
  2  1  1  0  0  0  0
  2  3  2  0  0  0  0
  4  1  1  0  0  0  0
  5  6  2  0  0  0  0
  5  2  1  0  0  0  0
  7  8  1  0  0  0  0
  7  6  1  0  0  0  0
  9  8  2  0  0  0  0
 10  9  1  0  0  0  0
 11 10  1  0  0  0  0
 12 10  2  0  0  0  0
 12 13  1  0  0  0  0
 13  7  2  0  0  0  0
 15 16  2  0  0  0  0
 15 20  1  0  0  0  0
 16 17  1  0  0  0  0
 17 14  1  0  0  0  0
 17 18  2  0  0  0  0
 19 18  1  0  0  0  0
 20 19  2  0  0  0  0
 21 22  1  0  0  0  0
 22 15  1  0  0  0  0
 23 20  1  0  0  0  0
 24 23  1  0  0  0  0
M  END
>  <MODEL>
6

>  <REMARK>
 VINA RESULT:    -7.134      4.973      9.600
 INTER + INTRA:          -9.974
 INTER:                  -9.518
 INTRA:                  -0.456
 UNBOUND:                -0.546
  Name = CHEMBL80341
  7 active torsions:
  status: ('A' for Active; 'I' for Inactive)
    1  A    between atoms: C_1  and  O_2
    2  A    between atoms: O_2  and  C_3
    3  A    between atoms: C_5  and  C_6
    4  A    between atoms: C_6  and  N_7
    5  A    between atoms: C_8  and  C_10
    6  A    between atoms: C_11  and  C_12
    7  A    between atoms: C_21  and  O_22
                            x       y       z     vdW  Elec       q    Type
                         _______ _______ _______ _____ _____    ______ ____

>  <TORSDO>
F 6

>  <SCORE>
-7.134

>  <RMSD_LB>
4.973

>  <RMSD_UB>
9.600

$$$$
CHEMBL80341
 OpenBabel10172500033D

 24 25  0  0  0  0  0  0  0  0999 V2000
  136.4840  132.8070  145.5610 N   0  0  0  0  0  0  0  0  0  0  0  0
  136.3810  131.6710  144.7990 C   0  0  0  0  0  0  0  0  0  0  0  0
  135.8760  130.6230  145.1790 O   0  0  0  0  0  0  0  0  0  0  0  0
  136.9300  133.5980  145.1800 H   0  0  0  0  0  0  0  0  0  0  0  0
  136.9540  131.8350  143.4380 C   0  0  0  0  0  3  0  0  0  0  0  0
  136.6990  132.9470  142.7290 C   0  0  0  0  0  3  0  0  0  0  0  0
  137.2440  133.2150  141.3890 C   0  0  0  0  0  0  0  0  0  0  0  0
  136.6410  134.1140  140.4990 C   0  0  0  0  0  3  0  0  0  0  0  0
  137.1980  134.3490  139.2360 C   0  0  0  0  0  3  0  0  0  0  0  0
  138.3690  133.6960  138.8620 C   0  0  0  0  0  0  0  0  0  0  0  0
  139.0460  133.9840  137.3080 Cl  0  0  0  0  0  0  0  0  0  0  0  0
  138.9940  132.8190  139.7430 C   0  0  0  0  0  3  0  0  0  0  0  0
  138.4360  132.5840  141.0040 C   0  0  0  0  0  3  0  0  0  0  0  0
  135.9570  132.8810  146.9070 C   0  0  0  0  0  2  0  0  0  0  0  0
  133.4280  135.2610  148.5080 C   0  0  0  0  0  0  0  0  0  0  0  0
  134.3510  134.2250  148.3280 C   0  0  0  0  0  3  0  0  0  0  0  0
  135.0060  134.0380  147.0970 C   0  0  0  0  0  0  0  0  0  0  0  0
  134.7160  134.9090  146.0360 C   0  0  0  0  0  3  0  0  0  0  0  0
  133.7910  135.9410  146.2010 C   0  0  0  0  0  3  0  0  0  0  0  0
  133.1540  136.1110  147.4310 C   0  0  0  0  0  0  0  0  0  0  0  0
  132.6670  134.4560  150.6190 C   0  0  0  0  0  1  0  0  0  0  0  0
  132.7480  135.5120  149.6710 O   0  0  0  0  0  0  0  0  0  0  0  0
  132.2410  137.1190  147.5890 O   0  0  0  0  0  0  0  0  0  0  0  0
  132.4390  137.8490  148.1420 H   0  0  0  0  0  0  0  0  0  0  0  0
  1 14  1  0  0  0  0
  2  3  2  0  0  0  0
  2  1  1  0  0  0  0
  4  1  1  0  0  0  0
  5  2  1  0  0  0  0
  6  5  2  0  0  0  0
  7  6  1  0  0  0  0
  8  7  2  0  0  0  0
  9  8  1  0  0  0  0
 10  9  2  0  0  0  0
 10 12  1  0  0  0  0
 11 10  1  0  0  0  0
 12 13  2  0  0  0  0
 13  7  1  0  0  0  0
 14 17  1  0  0  0  0
 15 22  1  0  0  0  0
 16 15  1  0  0  0  0
 17 16  2  0  0  0  0
 18 19  2  0  0  0  0
 18 17  1  0  0  0  0
 19 20  1  0  0  0  0
 20 23  1  0  0  0  0
 20 15  2  0  0  0  0
 22 21  1  0  0  0  0
 23 24  1  0  0  0  0
M  END
>  <MODEL>
7

>  <REMARK>
 VINA RESULT:    -7.025     12.759     15.158
 INTER + INTRA:          -9.830
 INTER:                  -9.224
 INTRA:                  -0.605
 UNBOUND:                -0.546
  Name = CHEMBL80341
  7 active torsions:
  status: ('A' for Active; 'I' for Inactive)
    1  A    between atoms: C_1  and  O_2
    2  A    between atoms: O_2  and  C_3
    3  A    between atoms: C_5  and  C_6
    4  A    between atoms: C_6  and  N_7
    5  A    between atoms: C_8  and  C_10
    6  A    between atoms: C_11  and  C_12
    7  A    between atoms: C_21  and  O_22
                            x       y       z     vdW  Elec       q    Type
                         _______ _______ _______ _____ _____    ______ ____

>  <TORSDO>
F 6

>  <SCORE>
-7.025

>  <RMSD_LB>
12.759

>  <RMSD_UB>
15.158

$$$$
CHEMBL80341
 OpenBabel10172500033D

 24 25  0  0  0  0  0  0  0  0999 V2000
  136.3980  136.2860  151.1190 N   0  0  0  0  0  0  0  0  0  0  0  0
  137.3150  137.0270  151.8230 C   0  0  0  0  0  0  0  0  0  0  0  0
  138.1260  137.7900  151.3160 O   0  0  0  0  0  0  0  0  0  0  0  0
  135.8000  135.6770  151.6090 H   0  0  0  0  0  0  0  0  0  0  0  0
  137.2290  136.8090  153.2890 C   0  0  0  0  0  3  0  0  0  0  0  0
  136.2590  136.0330  153.8000 C   0  0  0  0  0  3  0  0  0  0  0  0
  136.1090  135.7320  155.2320 C   0  0  0  0  0  0  0  0  0  0  0  0
  137.0650  136.1100  156.1840 C   0  0  0  0  0  3  0  0  0  0  0  0
  136.8800  135.8130  157.5390 C   0  0  0  0  0  3  0  0  0  0  0  0
  135.7280  135.1490  157.9520 C   0  0  0  0  0  0  0  0  0  0  0  0
  135.5070  134.7820  159.6170 Cl  0  0  0  0  0  0  0  0  0  0  0  0
  134.7570  134.7870  157.0240 C   0  0  0  0  0  3  0  0  0  0  0  0
  134.9450  135.0830  155.6690 C   0  0  0  0  0  3  0  0  0  0  0  0
  136.2830  136.3730  149.6790 C   0  0  0  0  0  2  0  0  0  0  0  0
  134.2630  133.9040  147.5700 C   0  0  0  0  0  0  0  0  0  0  0  0
  135.3300  134.6230  148.1180 C   0  0  0  0  0  3  0  0  0  0  0  0
  135.1250  135.5680  149.1400 C   0  0  0  0  0  0  0  0  0  0  0  0
  133.8200  135.7890  149.6050 C   0  0  0  0  0  3  0  0  0  0  0  0
  132.7450  135.0840  149.0600 C   0  0  0  0  0  3  0  0  0  0  0  0
  132.9710  134.1500  148.0490 C   0  0  0  0  0  0  0  0  0  0  0  0
  134.6380  133.4420  145.2620 C   0  0  0  0  0  1  0  0  0  0  0  0
  134.3760  132.9680  146.5750 O   0  0  0  0  0  0  0  0  0  0  0  0
  131.9150  133.4640  147.5100 O   0  0  0  0  0  0  0  0  0  0  0  0
  131.0990  133.4250  147.9670 H   0  0  0  0  0  0  0  0  0  0  0  0
  1  4  1  0  0  0  0
  1  2  1  0  0  0  0
  2  5  1  0  0  0  0
  3  2  2  0  0  0  0
  5  6  2  0  0  0  0
  6  7  1  0  0  0  0
  7 13  2  0  0  0  0
  7  8  1  0  0  0  0
  8  9  2  0  0  0  0
  9 10  1  0  0  0  0
 10 11  1  0  0  0  0
 12 10  2  0  0  0  0
 13 12  1  0  0  0  0
 14  1  1  0  0  0  0
 15 20  2  0  0  0  0
 15 16  1  0  0  0  0
 16 17  2  0  0  0  0
 17 18  1  0  0  0  0
 17 14  1  0  0  0  0
 19 18  2  0  0  0  0
 20 19  1  0  0  0  0
 21 22  1  0  0  0  0
 22 15  1  0  0  0  0
 23 24  1  0  0  0  0
 23 20  1  0  0  0  0
M  END
>  <MODEL>
8

>  <REMARK>
 VINA RESULT:    -7.006      7.266     10.725
 INTER + INTRA:          -9.805
 INTER:                  -9.291
 INTRA:                  -0.514
 UNBOUND:                -0.546
  Name = CHEMBL80341
  7 active torsions:
  status: ('A' for Active; 'I' for Inactive)
    1  A    between atoms: C_1  and  O_2
    2  A    between atoms: O_2  and  C_3
    3  A    between atoms: C_5  and  C_6
    4  A    between atoms: C_6  and  N_7
    5  A    between atoms: C_8  and  C_10
    6  A    between atoms: C_11  and  C_12
    7  A    between atoms: C_21  and  O_22
                            x       y       z     vdW  Elec       q    Type
                         _______ _______ _______ _____ _____    ______ ____

>  <TORSDO>
F 6

>  <SCORE>
-7.006

>  <RMSD_LB>
7.266

>  <RMSD_UB>
10.725

$$$$
CHEMBL80341
 OpenBabel10172500033D

 24 25  0  0  0  0  0  0  0  0999 V2000
  138.2170  138.0100  154.4230 N   0  0  0  0  0  0  0  0  0  0  0  0
  139.5000  138.4050  154.7100 C   0  0  0  0  0  0  0  0  0  0  0  0
  139.9600  138.4990  155.8400 O   0  0  0  0  0  0  0  0  0  0  0  0
  137.9240  137.9890  153.4830 H   0  0  0  0  0  0  0  0  0  0  0  0
  140.2940  138.7170  153.4950 C   0  0  0  0  0  3  0  0  0  0  0  0
  140.3120  137.8580  152.4620 C   0  0  0  0  0  3  0  0  0  0  0  0
  141.0410  138.0910  151.2060 C   0  0  0  0  0  0  0  0  0  0  0  0
  141.2570  139.3760  150.6890 C   0  0  0  0  0  3  0  0  0  0  0  0
  141.9650  139.5550  149.4950 C   0  0  0  0  0  3  0  0  0  0  0  0
  142.4730  138.4500  148.8180 C   0  0  0  0  0  0  0  0  0  0  0  0
  143.3370  138.6740  147.3480 Cl  0  0  0  0  0  0  0  0  0  0  0  0
  142.2890  137.1690  149.3290 C   0  0  0  0  0  3  0  0  0  0  0  0
  141.5800  136.9910  150.5230 C   0  0  0  0  0  3  0  0  0  0  0  0
  137.2820  137.6230  155.4570 C   0  0  0  0  0  2  0  0  0  0  0  0
  134.7430  134.7670  155.5950 C   0  0  0  0  0  0  0  0  0  0  0  0
  135.5590  135.8410  155.9660 C   0  0  0  0  0  3  0  0  0  0  0  0
  136.3680  136.5030  155.0240 C   0  0  0  0  0  0  0  0  0  0  0  0
  136.3520  136.0640  153.6920 C   0  0  0  0  0  3  0  0  0  0  0  0
  135.5490  134.9880  153.3100 C   0  0  0  0  0  3  0  0  0  0  0  0
  134.7520  134.3480  154.2590 C   0  0  0  0  0  0  0  0  0  0  0  0
  133.8700  134.5080  157.7980 C   0  0  0  0  0  1  0  0  0  0  0  0
  133.9270  134.0700  156.4470 O   0  0  0  0  0  0  0  0  0  0  0  0
  133.9700  133.2880  153.8860 O   0  0  0  0  0  0  0  0  0  0  0  0
  133.7030  133.1930  152.9930 H   0  0  0  0  0  0  0  0  0  0  0  0
  1  2  1  0  0  0  0
  1 14  1  0  0  0  0
  2  3  2  0  0  0  0
  4  1  1  0  0  0  0
  5  2  1  0  0  0  0
  6  5  2  0  0  0  0
  7  6  1  0  0  0  0
  8  7  1  0  0  0  0
  9  8  2  0  0  0  0
 10 12  2  0  0  0  0
 10  9  1  0  0  0  0
 11 10  1  0  0  0  0
 12 13  1  0  0  0  0
 13  7  2  0  0  0  0
 15 16  1  0  0  0  0
 15 22  1  0  0  0  0
 17 14  1  0  0  0  0
 17 16  2  0  0  0  0
 18 17  1  0  0  0  0
 19 18  2  0  0  0  0
 19 20  1  0  0  0  0
 20 15  2  0  0  0  0
 22 21  1  0  0  0  0
 23 20  1  0  0  0  0
 24 23  1  0  0  0  0
M  END
>  <MODEL>
9

>  <REMARK>
 VINA RESULT:    -6.956      5.303      9.945
 INTER + INTRA:          -9.739
 INTER:                  -9.193
 INTRA:                  -0.546
 UNBOUND:                -0.546
  Name = CHEMBL80341
  7 active torsions:
  status: ('A' for Active; 'I' for Inactive)
    1  A    between atoms: C_1  and  O_2
    2  A    between atoms: O_2  and  C_3
    3  A    between atoms: C_5  and  C_6
    4  A    between atoms: C_6  and  N_7
    5  A    between atoms: C_8  and  C_10
    6  A    between atoms: C_11  and  C_12
    7  A    between atoms: C_21  and  O_22
                            x       y       z     vdW  Elec       q    Type
                         _______ _______ _______ _____ _____    ______ ____

>  <TORSDO>
F 6

>  <SCORE>
-6.956

>  <RMSD_LB>
5.303

>  <RMSD_UB>
9.945

$$$$
