CHEMBL76698
 OpenBabel10172500153D

 21 21  0  0  0  0  0  0  0  0999 V2000
  148.7510  141.3600  153.6440 C   0  0  0  0  0  0  0  0  0  0  0  0
  148.2930  141.9240  154.6330 O   0  0  0  0  0  0  0  0  0  0  0  0
  148.8120  139.9880  153.5210 N   0  0  0  0  0  0  0  0  0  0  0  0
  149.2030  139.5890  152.7100 H   0  0  0  0  0  0  0  0  0  0  0  0
  149.2820  142.1090  152.4370 C   0  0  0  0  0  2  0  0  0  0  0  0
  148.4700  141.7680  151.1900 C   0  0  0  0  0  2  0  0  0  0  0  0
  147.0290  142.2660  151.2870 C   0  0  0  0  0  2  0  0  0  0  0  0
  146.1430  141.5280  150.2840 C   0  0  0  0  0  2  0  0  0  0  0  0
  146.7690  140.2060  149.8420 C   0  0  0  0  0  2  0  0  0  0  0  0
  146.1540  139.0330  150.6030 C   0  0  0  0  0  2  0  0  0  0  0  0
  143.6560  138.8280  150.3930 C   0  0  0  0  0  1  0  0  0  0  0  0
  145.0010  138.4070  149.8220 C   0  0  0  0  0  2  0  0  0  0  0  0
  148.3070  139.1310  154.5680 C   0  0  0  0  0  2  0  0  0  0  0  0
  146.9820  138.5060  154.2080 C   0  0  0  0  0  0  0  0  0  0  0  0
  146.9020  137.1310  153.9530 C   0  0  0  0  0  3  0  0  0  0  0  0
  145.6690  136.5280  153.7020 C   0  0  0  0  0  3  0  0  0  0  0  0
  144.5000  137.2900  153.7130 C   0  0  0  0  0  3  0  0  0  0  0  0
  144.5570  138.6590  153.9790 C   0  0  0  0  0  0  0  0  0  0  0  0
  145.7990  139.2600  154.2080 C   0  0  0  0  0  3  0  0  0  0  0  0
  143.4810  139.5000  154.0680 O   0  0  0  0  0  0  0  0  0  0  0  0
  142.3410  139.0200  154.7720 C   0  0  0  0  0  1  0  0  0  0  0  0
  1  2  2  0  0  0  0
  3  1  1  0  0  0  0
  3 13  1  0  0  0  0
  4  3  1  0  0  0  0
  5  1  1  0  0  0  0
  6  7  1  0  0  0  0
  6  5  1  0  0  0  0
  8  7  1  0  0  0  0
  9  8  1  0  0  0  0
  9 10  1  0  0  0  0
 12 11  1  0  0  0  0
 12 10  1  0  0  0  0
 14 19  1  0  0  0  0
 14 13  1  0  0  0  0
 15 14  2  0  0  0  0
 16 17  2  0  0  0  0
 16 15  1  0  0  0  0
 17 18  1  0  0  0  0
 18 20  1  0  0  0  0
 18 19  2  0  0  0  0
 20 21  1  0  0  0  0
M  END
>  <MODEL>
1

>  <REMARK>
 VINA RESULT:    -5.775      0.000      0.000
 INTER + INTRA:         -10.573
 INTER:                  -8.746
 INTRA:                  -1.826
 UNBOUND:                -1.422
  Name = CHEMBL76698
  12 active torsions:
  status: ('A' for Active; 'I' for Inactive)
    1  A    between atoms: C_1  and  C_2
    2  A    between atoms: C_2  and  C_3
    3  A    between atoms: C_3  and  C_4
    4  A    between atoms: C_4  and  C_5
    5  A    between atoms: C_5  and  C_6
    6  A    between atoms: C_6  and  C_7
    7  A    between atoms: C_7  and  C_8
    8  A    between atoms: C_8  and  C_9
    9  A    between atoms: N_11  and  C_12
   10  A    between atoms: C_12  and  C_13
   11  A    between atoms: C_17  and  O_18
   12  A    between atoms: O_18  and  C_19
                            x       y       z     vdW  Elec       q    Type
                         _______ _______ _______ _____ _____    ______ ____

>  <TORSDO>
F 10

>  <SCORE>
-5.775

>  <RMSD_LB>
0.000

>  <RMSD_UB>
0.000

$$$$
CHEMBL76698
 OpenBabel10172500153D

 21 21  0  0  0  0  0  0  0  0999 V2000
  145.2980  139.4570  154.4010 C   0  0  0  0  0  0  0  0  0  0  0  0
  144.4550  139.6120  155.2790 O   0  0  0  0  0  0  0  0  0  0  0  0
  145.3580  138.3330  153.6050 N   0  0  0  0  0  0  0  0  0  0  0  0
  146.0650  138.2560  152.9250 H   0  0  0  0  0  0  0  0  0  0  0  0
  146.3540  140.4960  154.0770 C   0  0  0  0  0  2  0  0  0  0  0  0
  147.6580  139.8260  153.6520 C   0  0  0  0  0  2  0  0  0  0  0  0
  148.4760  140.7060  152.7090 C   0  0  0  0  0  2  0  0  0  0  0  0
  147.6980  141.9730  152.3530 C   0  0  0  0  0  2  0  0  0  0  0  0
  147.9220  142.3840  150.8990 C   0  0  0  0  0  2  0  0  0  0  0  0
  146.5940  142.4650  150.1470 C   0  0  0  0  0  2  0  0  0  0  0  0
  144.6390  141.0180  150.7840 C   0  0  0  0  0  1  0  0  0  0  0  0
  145.4090  142.2920  151.0930 C   0  0  0  0  0  2  0  0  0  0  0  0
  144.3940  137.2680  153.7600 C   0  0  0  0  0  2  0  0  0  0  0  0
  143.2410  137.3950  152.7960 C   0  0  0  0  0  0  0  0  0  0  0  0
  143.4120  137.0480  151.4490 C   0  0  0  0  0  3  0  0  0  0  0  0
  142.3330  137.0810  150.5660 C   0  0  0  0  0  3  0  0  0  0  0  0
  141.0660  137.4500  151.0200 C   0  0  0  0  0  3  0  0  0  0  0  0
  140.8710  137.7850  152.3610 C   0  0  0  0  0  0  0  0  0  0  0  0
  141.9630  137.7710  153.2360 C   0  0  0  0  0  3  0  0  0  0  0  0
  139.6730  138.1120  152.9360 O   0  0  0  0  0  0  0  0  0  0  0  0
  138.4940  137.6880  152.2610 C   0  0  0  0  0  1  0  0  0  0  0  0
  1  2  2  0  0  0  0
  3 13  1  0  0  0  0
  3  1  1  0  0  0  0
  4  3  1  0  0  0  0
  5  1  1  0  0  0  0
  6  5  1  0  0  0  0
  7  6  1  0  0  0  0
  8  7  1  0  0  0  0
  9  8  1  0  0  0  0
 10  9  1  0  0  0  0
 10 12  1  0  0  0  0
 11 12  1  0  0  0  0
 14 19  1  0  0  0  0
 14 13  1  0  0  0  0
 15 14  2  0  0  0  0
 16 17  2  0  0  0  0
 16 15  1  0  0  0  0
 17 18  1  0  0  0  0
 18 20  1  0  0  0  0
 18 19  2  0  0  0  0
 21 20  1  0  0  0  0
M  END
>  <MODEL>
2

>  <REMARK>
 VINA RESULT:    -5.764      2.294      3.887
 INTER + INTRA:         -10.556
 INTER:                  -9.275
 INTRA:                  -1.281
 UNBOUND:                -1.422
  Name = CHEMBL76698
  12 active torsions:
  status: ('A' for Active; 'I' for Inactive)
    1  A    between atoms: C_1  and  C_2
    2  A    between atoms: C_2  and  C_3
    3  A    between atoms: C_3  and  C_4
    4  A    between atoms: C_4  and  C_5
    5  A    between atoms: C_5  and  C_6
    6  A    between atoms: C_6  and  C_7
    7  A    between atoms: C_7  and  C_8
    8  A    between atoms: C_8  and  C_9
    9  A    between atoms: N_11  and  C_12
   10  A    between atoms: C_12  and  C_13
   11  A    between atoms: C_17  and  O_18
   12  A    between atoms: O_18  and  C_19
                            x       y       z     vdW  Elec       q    Type
                         _______ _______ _______ _____ _____    ______ ____

>  <TORSDO>
F 10

>  <SCORE>
-5.764

>  <RMSD_LB>
2.294

>  <RMSD_UB>
3.887

$$$$
CHEMBL76698
 OpenBabel10172500153D

 21 21  0  0  0  0  0  0  0  0999 V2000
  146.7070  138.0180  152.1000 C   0  0  0  0  0  0  0  0  0  0  0  0
  146.7480  138.7290  151.1010 O   0  0  0  0  0  0  0  0  0  0  0  0
  145.6440  137.1910  152.3920 N   0  0  0  0  0  0  0  0  0  0  0  0
  145.6570  136.6520  153.2150 H   0  0  0  0  0  0  0  0  0  0  0  0
  147.8310  137.9530  153.1160 C   0  0  0  0  0  2  0  0  0  0  0  0
  148.3480  139.3530  153.4400 C   0  0  0  0  0  2  0  0  0  0  0  0
  147.3550  140.1520  154.2820 C   0  0  0  0  0  2  0  0  0  0  0  0
  147.5780  141.6510  154.0870 C   0  0  0  0  0  2  0  0  0  0  0  0
  147.3930  142.0650  152.6280 C   0  0  0  0  0  2  0  0  0  0  0  0
  145.9190  142.3310  152.3230 C   0  0  0  0  0  2  0  0  0  0  0  0
  146.8340  142.6940  150.0090 C   0  0  0  0  0  1  0  0  0  0  0  0
  145.6360  142.2390  150.8250 C   0  0  0  0  0  2  0  0  0  0  0  0
  144.5100  137.1060  151.5000 C   0  0  0  0  0  2  0  0  0  0  0  0
  143.2020  137.3440  152.2120 C   0  0  0  0  0  0  0  0  0  0  0  0
  143.1970  137.7250  153.5600 C   0  0  0  0  0  3  0  0  0  0  0  0
  141.9980  138.0290  154.2070 C   0  0  0  0  0  3  0  0  0  0  0  0
  140.7900  137.9680  153.5100 C   0  0  0  0  0  3  0  0  0  0  0  0
  140.7760  137.6040  152.1620 C   0  0  0  0  0  0  0  0  0  0  0  0
  141.9790  137.2790  151.5270 C   0  0  0  0  0  3  0  0  0  0  0  0
  139.6660  137.5570  151.3620 O   0  0  0  0  0  0  0  0  0  0  0  0
  139.8670  137.2010  149.9990 C   0  0  0  0  0  1  0  0  0  0  0  0
  1  3  1  0  0  0  0
  1  5  1  0  0  0  0
  2  1  2  0  0  0  0
  3  4  1  0  0  0  0
  5  6  1  0  0  0  0
  6  7  1  0  0  0  0
  8  7  1  0  0  0  0
  9  8  1  0  0  0  0
 10  9  1  0  0  0  0
 11 12  1  0  0  0  0
 12 10  1  0  0  0  0
 13 14  1  0  0  0  0
 13  3  1  0  0  0  0
 14 15  1  0  0  0  0
 15 16  2  0  0  0  0
 17 16  1  0  0  0  0
 18 17  2  0  0  0  0
 19 18  1  0  0  0  0
 19 14  2  0  0  0  0
 20 18  1  0  0  0  0
 21 20  1  0  0  0  0
M  END
>  <MODEL>
3

>  <REMARK>
 VINA RESULT:    -5.672      2.597      4.381
 INTER + INTRA:         -10.410
 INTER:                  -9.395
 INTRA:                  -1.015
 UNBOUND:                -1.422
  Name = CHEMBL76698
  12 active torsions:
  status: ('A' for Active; 'I' for Inactive)
    1  A    between atoms: C_1  and  C_2
    2  A    between atoms: C_2  and  C_3
    3  A    between atoms: C_3  and  C_4
    4  A    between atoms: C_4  and  C_5
    5  A    between atoms: C_5  and  C_6
    6  A    between atoms: C_6  and  C_7
    7  A    between atoms: C_7  and  C_8
    8  A    between atoms: C_8  and  C_9
    9  A    between atoms: N_11  and  C_12
   10  A    between atoms: C_12  and  C_13
   11  A    between atoms: C_17  and  O_18
   12  A    between atoms: O_18  and  C_19
                            x       y       z     vdW  Elec       q    Type
                         _______ _______ _______ _____ _____    ______ ____

>  <TORSDO>
F 10

>  <SCORE>
-5.672

>  <RMSD_LB>
2.597

>  <RMSD_UB>
4.381

$$$$
CHEMBL76698
 OpenBabel10172500153D

 21 21  0  0  0  0  0  0  0  0999 V2000
  148.1140  140.1240  154.3950 C   0  0  0  0  0  0  0  0  0  0  0  0
  148.9470  139.3240  153.9820 O   0  0  0  0  0  0  0  0  0  0  0  0
  146.9260  139.7410  154.9780 N   0  0  0  0  0  0  0  0  0  0  0  0
  146.2880  140.4260  155.2790 H   0  0  0  0  0  0  0  0  0  0  0  0
  148.3090  141.6270  154.3290 C   0  0  0  0  0  2  0  0  0  0  0  0
  147.2450  142.2710  153.4430 C   0  0  0  0  0  2  0  0  0  0  0  0
  147.5920  142.1660  151.9590 C   0  0  0  0  0  2  0  0  0  0  0  0
  146.3540  142.4340  151.1030 C   0  0  0  0  0  2  0  0  0  0  0  0
  145.2150  141.4740  151.4420 C   0  0  0  0  0  2  0  0  0  0  0  0
  144.9420  140.5240  150.2770 C   0  0  0  0  0  2  0  0  0  0  0  0
  146.5100  139.6100  148.5360 C   0  0  0  0  0  1  0  0  0  0  0  0
  146.1380  139.6140  150.0100 C   0  0  0  0  0  2  0  0  0  0  0  0
  146.6090  138.3420  155.1540 C   0  0  0  0  0  2  0  0  0  0  0  0
  145.8110  137.7860  154.0010 C   0  0  0  0  0  0  0  0  0  0  0  0
  144.5310  138.2860  153.7290 C   0  0  0  0  0  3  0  0  0  0  0  0
  143.8180  137.8400  152.6160 C   0  0  0  0  0  3  0  0  0  0  0  0
  144.3800  136.8970  151.7540 C   0  0  0  0  0  3  0  0  0  0  0  0
  145.6600  136.3980  151.9990 C   0  0  0  0  0  0  0  0  0  0  0  0
  146.3600  136.8330  153.1290 C   0  0  0  0  0  3  0  0  0  0  0  0
  146.3370  135.5130  151.2030 O   0  0  0  0  0  0  0  0  0  0  0  0
  147.0380  136.0510  150.0880 C   0  0  0  0  0  1  0  0  0  0  0  0
  1  3  1  0  0  0  0
  2  1  2  0  0  0  0
  3 13  1  0  0  0  0
  3  4  1  0  0  0  0
  5  1  1  0  0  0  0
  6  5  1  0  0  0  0
  7  6  1  0  0  0  0
  8  9  1  0  0  0  0
  8  7  1  0  0  0  0
 10  9  1  0  0  0  0
 11 12  1  0  0  0  0
 12 10  1  0  0  0  0
 14 13  1  0  0  0  0
 15 14  1  0  0  0  0
 16 15  2  0  0  0  0
 17 18  2  0  0  0  0
 17 16  1  0  0  0  0
 18 19  1  0  0  0  0
 19 14  2  0  0  0  0
 20 18  1  0  0  0  0
 21 20  1  0  0  0  0
M  END
>  <MODEL>
4

>  <REMARK>
 VINA RESULT:    -5.648      2.022      3.008
 INTER + INTRA:         -10.371
 INTER:                  -8.654
 INTRA:                  -1.717
 UNBOUND:                -1.422
  Name = CHEMBL76698
  12 active torsions:
  status: ('A' for Active; 'I' for Inactive)
    1  A    between atoms: C_1  and  C_2
    2  A    between atoms: C_2  and  C_3
    3  A    between atoms: C_3  and  C_4
    4  A    between atoms: C_4  and  C_5
    5  A    between atoms: C_5  and  C_6
    6  A    between atoms: C_6  and  C_7
    7  A    between atoms: C_7  and  C_8
    8  A    between atoms: C_8  and  C_9
    9  A    between atoms: N_11  and  C_12
   10  A    between atoms: C_12  and  C_13
   11  A    between atoms: C_17  and  O_18
   12  A    between atoms: O_18  and  C_19
                            x       y       z     vdW  Elec       q    Type
                         _______ _______ _______ _____ _____    ______ ____

>  <TORSDO>
F 10

>  <SCORE>
-5.648

>  <RMSD_LB>
2.022

>  <RMSD_UB>
3.008

$$$$
CHEMBL76698
 OpenBabel10172500153D

 21 21  0  0  0  0  0  0  0  0999 V2000
  148.7250  141.4140  153.6400 C   0  0  0  0  0  0  0  0  0  0  0  0
  148.0810  141.9150  154.5560 O   0  0  0  0  0  0  0  0  0  0  0  0
  148.9560  140.0590  153.5350 N   0  0  0  0  0  0  0  0  0  0  0  0
  149.4920  139.7140  152.7850 H   0  0  0  0  0  0  0  0  0  0  0  0
  149.3220  142.2290  152.5090 C   0  0  0  0  0  2  0  0  0  0  0  0
  148.6900  141.8430  151.1740 C   0  0  0  0  0  2  0  0  0  0  0  0
  147.3150  142.4820  150.9820 C   0  0  0  0  0  2  0  0  0  0  0  0
  146.4290  141.5880  150.1150 C   0  0  0  0  0  2  0  0  0  0  0  0
  146.4740  140.1310  150.5750 C   0  0  0  0  0  2  0  0  0  0  0  0
  145.3930  139.3080  149.8770 C   0  0  0  0  0  2  0  0  0  0  0  0
  143.3670  140.0020  151.1960 C   0  0  0  0  0  1  0  0  0  0  0  0
  144.3130  138.8610  150.8590 C   0  0  0  0  0  2  0  0  0  0  0  0
  148.4180  139.1420  154.5120 C   0  0  0  0  0  2  0  0  0  0  0  0
  147.5710  138.0650  153.8810 C   0  0  0  0  0  0  0  0  0  0  0  0
  146.3910  137.6430  154.5080 C   0  0  0  0  0  3  0  0  0  0  0  0
  145.5570  136.7080  153.8930 C   0  0  0  0  0  3  0  0  0  0  0  0
  145.8860  136.1930  152.6390 C   0  0  0  0  0  3  0  0  0  0  0  0
  147.0490  136.6110  151.9910 C   0  0  0  0  0  0  0  0  0  0  0  0
  147.8920  137.5310  152.6240 C   0  0  0  0  0  3  0  0  0  0  0  0
  147.4520  136.2190  150.7430 O   0  0  0  0  0  0  0  0  0  0  0  0
  146.4450  135.7450  149.8570 C   0  0  0  0  0  1  0  0  0  0  0  0
  1  2  2  0  0  0  0
  3  1  1  0  0  0  0
  3 13  1  0  0  0  0
  4  3  1  0  0  0  0
  5  1  1  0  0  0  0
  6  5  1  0  0  0  0
  7  6  1  0  0  0  0
  8  9  1  0  0  0  0
  8  7  1  0  0  0  0
 10  9  1  0  0  0  0
 10 12  1  0  0  0  0
 12 11  1  0  0  0  0
 14 15  1  0  0  0  0
 14 13  1  0  0  0  0
 16 15  2  0  0  0  0
 17 16  1  0  0  0  0
 18 19  1  0  0  0  0
 18 17  2  0  0  0  0
 19 14  2  0  0  0  0
 20 18  1  0  0  0  0
 21 20  1  0  0  0  0
M  END
>  <MODEL>
5

>  <REMARK>
 VINA RESULT:    -5.471      1.754      2.506
 INTER + INTRA:         -10.091
 INTER:                  -8.397
 INTRA:                  -1.694
 UNBOUND:                -1.422
  Name = CHEMBL76698
  12 active torsions:
  status: ('A' for Active; 'I' for Inactive)
    1  A    between atoms: C_1  and  C_2
    2  A    between atoms: C_2  and  C_3
    3  A    between atoms: C_3  and  C_4
    4  A    between atoms: C_4  and  C_5
    5  A    between atoms: C_5  and  C_6
    6  A    between atoms: C_6  and  C_7
    7  A    between atoms: C_7  and  C_8
    8  A    between atoms: C_8  and  C_9
    9  A    between atoms: N_11  and  C_12
   10  A    between atoms: C_12  and  C_13
   11  A    between atoms: C_17  and  O_18
   12  A    between atoms: O_18  and  C_19
                            x       y       z     vdW  Elec       q    Type
                         _______ _______ _______ _____ _____    ______ ____

>  <TORSDO>
F 10

>  <SCORE>
-5.471

>  <RMSD_LB>
1.754

>  <RMSD_UB>
2.506

$$$$
CHEMBL76698
 OpenBabel10172500153D

 21 21  0  0  0  0  0  0  0  0999 V2000
  134.7500  135.2620  145.7950 C   0  0  0  0  0  0  0  0  0  0  0  0
  135.2670  136.3480  146.0340 O   0  0  0  0  0  0  0  0  0  0  0  0
  133.6170  134.8090  146.4360 N   0  0  0  0  0  0  0  0  0  0  0  0
  133.2530  133.9220  146.2140 H   0  0  0  0  0  0  0  0  0  0  0  0
  135.2870  134.3040  144.7490 C   0  0  0  0  0  2  0  0  0  0  0  0
  134.6970  132.9090  144.9390 C   0  0  0  0  0  2  0  0  0  0  0  0
  135.2760  131.8990  143.9500 C   0  0  0  0  0  2  0  0  0  0  0  0
  136.7990  131.8540  144.0660 C   0  0  0  0  0  2  0  0  0  0  0  0
  137.4700  131.8660  142.6930 C   0  0  0  0  0  2  0  0  0  0  0  0
  137.7340  133.2980  142.2310 C   0  0  0  0  0  2  0  0  0  0  0  0
  138.8970  132.8620  140.0440 C   0  0  0  0  0  1  0  0  0  0  0  0
  137.6490  133.4170  140.7120 C   0  0  0  0  0  2  0  0  0  0  0  0
  132.9580  135.6240  147.4310 C   0  0  0  0  0  2  0  0  0  0  0  0
  133.1970  135.1200  148.8330 C   0  0  0  0  0  0  0  0  0  0  0  0
  132.9500  133.7770  149.1470 C   0  0  0  0  0  3  0  0  0  0  0  0
  133.2450  133.2800  150.4170 C   0  0  0  0  0  3  0  0  0  0  0  0
  133.8030  134.1160  151.3850 C   0  0  0  0  0  3  0  0  0  0  0  0
  134.0700  135.4540  151.0880 C   0  0  0  0  0  0  0  0  0  0  0  0
  133.7500  135.9500  149.8200 C   0  0  0  0  0  3  0  0  0  0  0  0
  134.6580  136.3560  151.9320 O   0  0  0  0  0  0  0  0  0  0  0  0
  136.0280  136.1440  152.2530 C   0  0  0  0  0  1  0  0  0  0  0  0
  1  2  2  0  0  0  0
  1  3  1  0  0  0  0
  3 13  1  0  0  0  0
  4  3  1  0  0  0  0
  5  6  1  0  0  0  0
  5  1  1  0  0  0  0
  7  8  1  0  0  0  0
  7  6  1  0  0  0  0
  9  8  1  0  0  0  0
 10  9  1  0  0  0  0
 11 12  1  0  0  0  0
 12 10  1  0  0  0  0
 13 14  1  0  0  0  0
 14 15  2  0  0  0  0
 14 19  1  0  0  0  0
 15 16  1  0  0  0  0
 16 17  2  0  0  0  0
 18 17  1  0  0  0  0
 18 20  1  0  0  0  0
 19 18  2  0  0  0  0
 20 21  1  0  0  0  0
M  END
>  <MODEL>
6

>  <REMARK>
 VINA RESULT:    -5.467     11.732     14.565
 INTER + INTRA:         -10.085
 INTER:                  -9.294
 INTRA:                  -0.791
 UNBOUND:                -1.422
  Name = CHEMBL76698
  12 active torsions:
  status: ('A' for Active; 'I' for Inactive)
    1  A    between atoms: C_1  and  C_2
    2  A    between atoms: C_2  and  C_3
    3  A    between atoms: C_3  and  C_4
    4  A    between atoms: C_4  and  C_5
    5  A    between atoms: C_5  and  C_6
    6  A    between atoms: C_6  and  C_7
    7  A    between atoms: C_7  and  C_8
    8  A    between atoms: C_8  and  C_9
    9  A    between atoms: N_11  and  C_12
   10  A    between atoms: C_12  and  C_13
   11  A    between atoms: C_17  and  O_18
   12  A    between atoms: O_18  and  C_19
                            x       y       z     vdW  Elec       q    Type
                         _______ _______ _______ _____ _____    ______ ____

>  <TORSDO>
F 10

>  <SCORE>
-5.467

>  <RMSD_LB>
11.732

>  <RMSD_UB>
14.565

$$$$
CHEMBL76698
 OpenBabel10172500153D

 21 21  0  0  0  0  0  0  0  0999 V2000
  146.0420  141.1020  153.5320 C   0  0  0  0  0  0  0  0  0  0  0  0
  146.8760  140.6890  154.3310 O   0  0  0  0  0  0  0  0  0  0  0  0
  144.8190  140.4950  153.3400 N   0  0  0  0  0  0  0  0  0  0  0  0
  144.1930  140.8620  152.6750 H   0  0  0  0  0  0  0  0  0  0  0  0
  146.2540  142.3390  152.6800 C   0  0  0  0  0  2  0  0  0  0  0  0
  147.1460  142.0230  151.4820 C   0  0  0  0  0  2  0  0  0  0  0  0
  146.4380  142.2840  150.1540 C   0  0  0  0  0  2  0  0  0  0  0  0
  146.2790  140.9810  149.3710 C   0  0  0  0  0  2  0  0  0  0  0  0
  146.9100  139.8000  150.1070 C   0  0  0  0  0  2  0  0  0  0  0  0
  145.8740  138.7080  150.3680 C   0  0  0  0  0  2  0  0  0  0  0  0
  146.7210  136.3750  150.7760 C   0  0  0  0  0  1  0  0  0  0  0  0
  146.3690  137.7100  151.4120 C   0  0  0  0  0  2  0  0  0  0  0  0
  144.4470  139.3290  154.1070 C   0  0  0  0  0  2  0  0  0  0  0  0
  143.0330  138.8850  153.8240 C   0  0  0  0  0  0  0  0  0  0  0  0
  142.7280  138.2440  152.6160 C   0  0  0  0  0  3  0  0  0  0  0  0
  141.4440  137.7540  152.3770 C   0  0  0  0  0  3  0  0  0  0  0  0
  140.4510  137.8880  153.3490 C   0  0  0  0  0  3  0  0  0  0  0  0
  140.7380  138.5100  154.5650 C   0  0  0  0  0  0  0  0  0  0  0  0
  142.0220  139.0190  154.7870 C   0  0  0  0  0  3  0  0  0  0  0  0
  139.8680  138.6560  155.6110 O   0  0  0  0  0  0  0  0  0  0  0  0
  139.8650  137.6320  156.5990 C   0  0  0  0  0  1  0  0  0  0  0  0
  1  2  2  0  0  0  0
  3  1  1  0  0  0  0
  3 13  1  0  0  0  0
  4  3  1  0  0  0  0
  5  1  1  0  0  0  0
  6  5  1  0  0  0  0
  7  6  1  0  0  0  0
  8  9  1  0  0  0  0
  8  7  1  0  0  0  0
  9 10  1  0  0  0  0
 10 12  1  0  0  0  0
 11 12  1  0  0  0  0
 14 13  1  0  0  0  0
 14 19  1  0  0  0  0
 15 14  2  0  0  0  0
 16 15  1  0  0  0  0
 16 17  2  0  0  0  0
 17 18  1  0  0  0  0
 18 19  2  0  0  0  0
 18 20  1  0  0  0  0
 20 21  1  0  0  0  0
M  END
>  <MODEL>
7

>  <REMARK>
 VINA RESULT:    -5.440      2.159      3.231
 INTER + INTRA:         -10.042
 INTER:                  -8.820
 INTRA:                  -1.222
 UNBOUND:                -1.422
  Name = CHEMBL76698
  12 active torsions:
  status: ('A' for Active; 'I' for Inactive)
    1  A    between atoms: C_1  and  C_2
    2  A    between atoms: C_2  and  C_3
    3  A    between atoms: C_3  and  C_4
    4  A    between atoms: C_4  and  C_5
    5  A    between atoms: C_5  and  C_6
    6  A    between atoms: C_6  and  C_7
    7  A    between atoms: C_7  and  C_8
    8  A    between atoms: C_8  and  C_9
    9  A    between atoms: N_11  and  C_12
   10  A    between atoms: C_12  and  C_13
   11  A    between atoms: C_17  and  O_18
   12  A    between atoms: O_18  and  C_19
                            x       y       z     vdW  Elec       q    Type
                         _______ _______ _______ _____ _____    ______ ____

>  <TORSDO>
F 10

>  <SCORE>
-5.440

>  <RMSD_LB>
2.159

>  <RMSD_UB>
3.231

$$$$
CHEMBL76698
 OpenBabel10172500153D

 21 21  0  0  0  0  0  0  0  0999 V2000
  133.5030  133.1960  148.1300 C   0  0  0  0  0  0  0  0  0  0  0  0
  132.3750  133.5720  147.8300 O   0  0  0  0  0  0  0  0  0  0  0  0
  134.5090  133.0170  147.2040 N   0  0  0  0  0  0  0  0  0  0  0  0
  135.3920  132.7000  147.5000 H   0  0  0  0  0  0  0  0  0  0  0  0
  133.9250  132.9060  149.5580 C   0  0  0  0  0  2  0  0  0  0  0  0
  133.1380  133.7700  150.5400 C   0  0  0  0  0  2  0  0  0  0  0  0
  133.8420  135.0940  150.8330 C   0  0  0  0  0  2  0  0  0  0  0  0
  132.8520  136.2550  150.7420 C   0  0  0  0  0  2  0  0  0  0  0  0
  132.7050  136.7600  149.3070 C   0  0  0  0  0  2  0  0  0  0  0  0
  134.0710  136.8910  148.6360 C   0  0  0  0  0  2  0  0  0  0  0  0
  132.5020  136.9500  146.6720 C   0  0  0  0  0  1  0  0  0  0  0  0
  133.9510  136.8370  147.1150 C   0  0  0  0  0  2  0  0  0  0  0  0
  134.2790  133.2930  145.8050 C   0  0  0  0  0  2  0  0  0  0  0  0
  135.5530  133.6240  145.0690 C   0  0  0  0  0  0  0  0  0  0  0  0
  136.4010  134.6290  145.5530 C   0  0  0  0  0  3  0  0  0  0  0  0
  137.6230  134.8860  144.9300 C   0  0  0  0  0  3  0  0  0  0  0  0
  138.0180  134.1350  143.8220 C   0  0  0  0  0  3  0  0  0  0  0  0
  137.1940  133.1190  143.3340 C   0  0  0  0  0  0  0  0  0  0  0  0
  135.9600  132.8820  143.9500 C   0  0  0  0  0  3  0  0  0  0  0  0
  137.4910  132.2840  142.2910 O   0  0  0  0  0  0  0  0  0  0  0  0
  137.8000  132.8910  141.0430 C   0  0  0  0  0  1  0  0  0  0  0  0
  1  5  1  0  0  0  0
  2  1  2  0  0  0  0
  3  4  1  0  0  0  0
  3  1  1  0  0  0  0
  5  6  1  0  0  0  0
  6  7  1  0  0  0  0
  8  7  1  0  0  0  0
  9  8  1  0  0  0  0
 10  9  1  0  0  0  0
 11 12  1  0  0  0  0
 12 10  1  0  0  0  0
 13  3  1  0  0  0  0
 14 15  1  0  0  0  0
 14 13  1  0  0  0  0
 16 15  2  0  0  0  0
 17 16  1  0  0  0  0
 18 17  2  0  0  0  0
 18 19  1  0  0  0  0
 19 14  2  0  0  0  0
 20 18  1  0  0  0  0
 21 20  1  0  0  0  0
M  END
>  <MODEL>
8

>  <REMARK>
 VINA RESULT:    -5.298     13.361     15.215
 INTER + INTRA:          -9.817
 INTER:                  -8.395
 INTRA:                  -1.422
 UNBOUND:                -1.422
  Name = CHEMBL76698
  12 active torsions:
  status: ('A' for Active; 'I' for Inactive)
    1  A    between atoms: C_1  and  C_2
    2  A    between atoms: C_2  and  C_3
    3  A    between atoms: C_3  and  C_4
    4  A    between atoms: C_4  and  C_5
    5  A    between atoms: C_5  and  C_6
    6  A    between atoms: C_6  and  C_7
    7  A    between atoms: C_7  and  C_8
    8  A    between atoms: C_8  and  C_9
    9  A    between atoms: N_11  and  C_12
   10  A    between atoms: C_12  and  C_13
   11  A    between atoms: C_17  and  O_18
   12  A    between atoms: O_18  and  C_19
                            x       y       z     vdW  Elec       q    Type
                         _______ _______ _______ _____ _____    ______ ____

>  <TORSDO>
F 10

>  <SCORE>
-5.298

>  <RMSD_LB>
13.361

>  <RMSD_UB>
15.215

$$$$
CHEMBL76698
 OpenBabel10172500153D

 21 21  0  0  0  0  0  0  0  0999 V2000
  145.4630  139.8250  151.6210 C   0  0  0  0  0  0  0  0  0  0  0  0
  144.8990  140.3950  152.5490 O   0  0  0  0  0  0  0  0  0  0  0  0
  145.4410  138.4570  151.4530 N   0  0  0  0  0  0  0  0  0  0  0  0
  145.9240  138.0520  150.6970 H   0  0  0  0  0  0  0  0  0  0  0  0
  146.2310  140.5640  150.5420 C   0  0  0  0  0  2  0  0  0  0  0  0
  146.6470  141.9500  151.0280 C   0  0  0  0  0  2  0  0  0  0  0  0
  148.0750  141.9640  151.5720 C   0  0  0  0  0  2  0  0  0  0  0  0
  148.0620  141.9870  153.1000 C   0  0  0  0  0  2  0  0  0  0  0  0
  148.7240  140.7420  153.6890 C   0  0  0  0  0  2  0  0  0  0  0  0
  147.7340  139.9570  154.5490 C   0  0  0  0  0  2  0  0  0  0  0  0
  148.7220  138.1600  153.0930 C   0  0  0  0  0  1  0  0  0  0  0  0
  147.8580  138.4550  154.3080 C   0  0  0  0  0  2  0  0  0  0  0  0
  144.7150  137.6130  152.3740 C   0  0  0  0  0  2  0  0  0  0  0  0
  143.2300  137.6270  152.1140 C   0  0  0  0  0  0  0  0  0  0  0  0
  142.7280  137.1780  150.8850 C   0  0  0  0  0  3  0  0  0  0  0  0
  141.3530  137.1070  150.6630 C   0  0  0  0  0  3  0  0  0  0  0  0
  140.4600  137.4730  151.6720 C   0  0  0  0  0  3  0  0  0  0  0  0
  140.9390  137.9100  152.9080 C   0  0  0  0  0  0  0  0  0  0  0  0
  142.3200  137.9990  153.1150 C   0  0  0  0  0  3  0  0  0  0  0  0
  140.1680  138.2460  153.9880 O   0  0  0  0  0  0  0  0  0  0  0  0
  140.7720  138.1430  155.2720 C   0  0  0  0  0  1  0  0  0  0  0  0
  1  2  2  0  0  0  0
  3  1  1  0  0  0  0
  3 13  1  0  0  0  0
  4  3  1  0  0  0  0
  5  6  1  0  0  0  0
  5  1  1  0  0  0  0
  6  7  1  0  0  0  0
  7  8  1  0  0  0  0
  8  9  1  0  0  0  0
  9 10  1  0  0  0  0
 11 12  1  0  0  0  0
 12 10  1  0  0  0  0
 14 13  1  0  0  0  0
 14 19  1  0  0  0  0
 15 14  2  0  0  0  0
 16 15  1  0  0  0  0
 16 17  2  0  0  0  0
 17 18  1  0  0  0  0
 18 19  2  0  0  0  0
 18 20  1  0  0  0  0
 20 21  1  0  0  0  0
M  END
>  <MODEL>
9

>  <REMARK>
 VINA RESULT:    -5.259      2.144      4.155
 INTER + INTRA:          -9.756
 INTER:                  -8.457
 INTRA:                  -1.299
 UNBOUND:                -1.422
  Name = CHEMBL76698
  12 active torsions:
  status: ('A' for Active; 'I' for Inactive)
    1  A    between atoms: C_1  and  C_2
    2  A    between atoms: C_2  and  C_3
    3  A    between atoms: C_3  and  C_4
    4  A    between atoms: C_4  and  C_5
    5  A    between atoms: C_5  and  C_6
    6  A    between atoms: C_6  and  C_7
    7  A    between atoms: C_7  and  C_8
    8  A    between atoms: C_8  and  C_9
    9  A    between atoms: N_11  and  C_12
   10  A    between atoms: C_12  and  C_13
   11  A    between atoms: C_17  and  O_18
   12  A    between atoms: O_18  and  C_19
                            x       y       z     vdW  Elec       q    Type
                         _______ _______ _______ _____ _____    ______ ____

>  <TORSDO>
F 10

>  <SCORE>
-5.259

>  <RMSD_LB>
2.144

>  <RMSD_UB>
4.155

$$$$
