CHEMBL1701358
 OpenBabel10172500273D

 28 29  0  0  0  0  0  0  0  0999 V2000
  134.2900  135.4570  154.4230 C   0  0  0  0  0  0  0  0  0  0  0  0
  133.9180  134.6740  155.2820 O   0  0  0  0  0  0  0  0  0  0  0  0
  134.9710  134.3680  152.3320 C   0  0  0  0  0  3  0  0  0  0  0  0
  134.1880  135.2570  152.9620 C   0  0  0  0  0  3  0  0  0  0  0  0
  135.8450  134.3540  148.6260 C   0  0  0  0  0  0  0  0  0  0  0  0
  135.8890  134.6390  149.9970 C   0  0  0  0  0  3  0  0  0  0  0  0
  134.9340  134.1080  150.8810 C   0  0  0  0  0  0  0  0  0  0  0  0
  133.9460  133.2550  150.3720 C   0  0  0  0  0  3  0  0  0  0  0  0
  133.8890  132.9620  149.0080 C   0  0  0  0  0  3  0  0  0  0  0  0
  134.8320  133.5150  148.1450 C   0  0  0  0  0  0  0  0  0  0  0  0
  138.0500  134.3110  147.7160 C   0  0  0  0  0  1  0  0  0  0  0  0
  136.7300  134.8330  147.6970 O   0  0  0  0  0  0  0  0  0  0  0  0
  134.7770  133.2330  146.8050 O   0  0  0  0  0  0  0  0  0  0  0  0
  134.7800  133.9300  146.1790 H   0  0  0  0  0  0  0  0  0  0  0  0
  134.8680  136.6640  154.6370 O   0  0  0  0  0  0  0  0  0  0  0  0
  136.0560  136.6330  155.4250 C   0  0  0  0  0  2  0  0  0  0  0  0
  137.0590  137.7280  155.0560 C   0  0  0  0  0  0  0  0  0  0  0  0
  137.0140  138.8470  155.5560 O   0  0  0  0  0  0  0  0  0  0  0  0
  138.0150  137.3400  154.1430 N   0  0  0  0  0  0  0  0  0  0  0  0
  137.9810  136.4250  153.7800 H   0  0  0  0  0  0  0  0  0  0  0  0
  139.0660  138.2240  153.6990 C   0  0  0  0  0  2  0  0  0  0  0  0
  139.7000  137.7760  152.4050 C   0  0  0  0  0  0  0  0  0  0  0  0
  141.0970  137.6510  152.3120 C   0  0  0  0  0  3  0  0  0  0  0  0
  141.6940  137.1940  151.1360 C   0  0  0  0  0  3  0  0  0  0  0  0
  140.8990  136.8720  150.0450 C   0  0  0  0  0  0  0  0  0  0  0  0
  141.4700  136.4250  148.9200 F   0  0  0  0  0  0  0  0  0  0  0  0
  139.5150  137.0040  150.1070 C   0  0  0  0  0  3  0  0  0  0  0  0
  138.9150  137.4600  151.2840 C   0  0  0  0  0  3  0  0  0  0  0  0
  1 15  1  0  0  0  0
  1  2  2  0  0  0  0
  3  4  2  0  0  0  0
  4  1  1  0  0  0  0
  5  6  1  0  0  0  0
  6  7  2  0  0  0  0
  7  3  1  0  0  0  0
  8  7  1  0  0  0  0
  9  8  2  0  0  0  0
 10  5  2  0  0  0  0
 10  9  1  0  0  0  0
 12 11  1  0  0  0  0
 12  5  1  0  0  0  0
 13 10  1  0  0  0  0
 14 13  1  0  0  0  0
 15 16  1  0  0  0  0
 17 16  1  0  0  0  0
 17 18  2  0  0  0  0
 19 17  1  0  0  0  0
 20 19  1  0  0  0  0
 21 19  1  0  0  0  0
 22 21  1  0  0  0  0
 23 22  1  0  0  0  0
 24 23  2  0  0  0  0
 25 27  2  0  0  0  0
 25 24  1  0  0  0  0
 26 25  1  0  0  0  0
 27 28  1  0  0  0  0
 28 22  2  0  0  0  0
M  END
>  <MODEL>
1

>  <REMARK>
 VINA RESULT:    -7.764      0.000      0.000
 INTER + INTRA:         -12.279
 INTER:                 -11.291
 INTRA:                  -0.987
 UNBOUND:                -0.657
  Name = CHEMBL1701358
  10 active torsions:
  status: ('A' for Active; 'I' for Inactive)
    1  A    between atoms: C_1  and  O_2
    2  A    between atoms: O_2  and  C_3
    3  A    between atoms: C_5  and  C_6
    4  A    between atoms: C_7  and  C_8
    5  A    between atoms: C_8  and  O_10
    6  A    between atoms: O_10  and  C_11
    7  A    between atoms: C_11  and  C_12
    8  A    between atoms: N_14  and  C_15
    9  A    between atoms: C_15  and  C_16
   10  A    between atoms: C_25  and  O_26
                            x       y       z     vdW  Elec       q    Type
                         _______ _______ _______ _____ _____    ______ ____

>  <TORSDO>
F 9

>  <SCORE>
-7.764

>  <RMSD_LB>
0.000

>  <RMSD_UB>
0.000

$$$$
CHEMBL1701358
 OpenBabel10172500273D

 28 29  0  0  0  0  0  0  0  0999 V2000
  137.0710  137.9930  155.4000 C   0  0  0  0  0  0  0  0  0  0  0  0
  137.2800  138.9180  156.1700 O   0  0  0  0  0  0  0  0  0  0  0  0
  138.7200  138.3100  153.6100 C   0  0  0  0  0  3  0  0  0  0  0  0
  138.0180  137.4740  154.3910 C   0  0  0  0  0  3  0  0  0  0  0  0
  140.2310  137.1890  150.3000 C   0  0  0  0  0  0  0  0  0  0  0  0
  139.2910  137.5740  151.2650 C   0  0  0  0  0  3  0  0  0  0  0  0
  139.6820  137.8760  152.5810 C   0  0  0  0  0  0  0  0  0  0  0  0
  141.0430  137.8170  152.9100 C   0  0  0  0  0  3  0  0  0  0  0  0
  141.9920  137.4360  151.9580 C   0  0  0  0  0  3  0  0  0  0  0  0
  141.5810  137.1190  150.6650 C   0  0  0  0  0  0  0  0  0  0  0  0
  139.2310  135.6640  148.7610 C   0  0  0  0  0  1  0  0  0  0  0  0
  139.9360  136.8730  149.0000 O   0  0  0  0  0  0  0  0  0  0  0  0
  142.5090  136.7410  149.7300 O   0  0  0  0  0  0  0  0  0  0  0  0
  143.4230  136.7910  149.9300 H   0  0  0  0  0  0  0  0  0  0  0  0
  135.9340  137.2610  155.3180 O   0  0  0  0  0  0  0  0  0  0  0  0
  136.0160  135.9550  155.8850 C   0  0  0  0  0  2  0  0  0  0  0  0
  134.9960  134.9750  155.3000 C   0  0  0  0  0  0  0  0  0  0  0  0
  134.1660  134.4050  156.0010 O   0  0  0  0  0  0  0  0  0  0  0  0
  135.0800  134.8110  153.9350 N   0  0  0  0  0  0  0  0  0  0  0  0
  135.7790  135.2980  153.4410 H   0  0  0  0  0  0  0  0  0  0  0  0
  134.1800  133.9550  153.2010 C   0  0  0  0  0  2  0  0  0  0  0  0
  134.4560  133.9500  151.7170 C   0  0  0  0  0  0  0  0  0  0  0  0
  135.5340  134.6890  151.2010 C   0  0  0  0  0  3  0  0  0  0  0  0
  135.8300  134.6580  149.8370 C   0  0  0  0  0  3  0  0  0  0  0  0
  135.0440  133.8960  148.9830 C   0  0  0  0  0  0  0  0  0  0  0  0
  135.3330  133.8570  147.6760 F   0  0  0  0  0  0  0  0  0  0  0  0
  133.9620  133.1690  149.4680 C   0  0  0  0  0  3  0  0  0  0  0  0
  133.6640  133.1990  150.8340 C   0  0  0  0  0  3  0  0  0  0  0  0
  1  2  2  0  0  0  0
  3  4  2  0  0  0  0
  4  1  1  0  0  0  0
  5 10  2  0  0  0  0
  5  6  1  0  0  0  0
  6  7  2  0  0  0  0
  7  8  1  0  0  0  0
  7  3  1  0  0  0  0
  9  8  2  0  0  0  0
 10  9  1  0  0  0  0
 11 12  1  0  0  0  0
 12  5  1  0  0  0  0
 13 14  1  0  0  0  0
 13 10  1  0  0  0  0
 15  1  1  0  0  0  0
 15 16  1  0  0  0  0
 17 16  1  0  0  0  0
 17 18  2  0  0  0  0
 19 17  1  0  0  0  0
 20 19  1  0  0  0  0
 21 19  1  0  0  0  0
 22 21  1  0  0  0  0
 23 22  1  0  0  0  0
 24 23  2  0  0  0  0
 25 27  2  0  0  0  0
 25 24  1  0  0  0  0
 26 25  1  0  0  0  0
 27 28  1  0  0  0  0
 28 22  2  0  0  0  0
M  END
>  <MODEL>
2

>  <REMARK>
 VINA RESULT:    -7.586      2.316      5.999
 INTER + INTRA:         -12.012
 INTER:                 -11.044
 INTRA:                  -0.969
 UNBOUND:                -0.657
  Name = CHEMBL1701358
  10 active torsions:
  status: ('A' for Active; 'I' for Inactive)
    1  A    between atoms: C_1  and  O_2
    2  A    between atoms: O_2  and  C_3
    3  A    between atoms: C_5  and  C_6
    4  A    between atoms: C_7  and  C_8
    5  A    between atoms: C_8  and  O_10
    6  A    between atoms: O_10  and  C_11
    7  A    between atoms: C_11  and  C_12
    8  A    between atoms: N_14  and  C_15
    9  A    between atoms: C_15  and  C_16
   10  A    between atoms: C_25  and  O_26
                            x       y       z     vdW  Elec       q    Type
                         _______ _______ _______ _____ _____    ______ ____

>  <TORSDO>
F 9

>  <SCORE>
-7.586

>  <RMSD_LB>
2.316

>  <RMSD_UB>
5.999

$$$$
CHEMBL1701358
 OpenBabel10172500273D

 28 29  0  0  0  0  0  0  0  0999 V2000
  135.8030  136.0970  155.2790 C   0  0  0  0  0  0  0  0  0  0  0  0
  135.4720  135.2140  156.0550 O   0  0  0  0  0  0  0  0  0  0  0  0
  135.0790  135.6220  152.9830 C   0  0  0  0  0  3  0  0  0  0  0  0
  136.0700  135.9290  153.8350 C   0  0  0  0  0  3  0  0  0  0  0  0
  134.5750  135.8020  149.2130 C   0  0  0  0  0  0  0  0  0  0  0  0
  134.3660  135.9740  150.5880 C   0  0  0  0  0  3  0  0  0  0  0  0
  135.2580  135.4360  151.5320 C   0  0  0  0  0  0  0  0  0  0  0  0
  136.3880  134.7450  151.0730 C   0  0  0  0  0  3  0  0  0  0  0  0
  136.6100  134.5660  149.7060 C   0  0  0  0  0  3  0  0  0  0  0  0
  135.7020  135.0890  148.7870 C   0  0  0  0  0  0  0  0  0  0  0  0
  132.6320  137.0590  148.6290 C   0  0  0  0  0  1  0  0  0  0  0  0
  133.7550  136.2870  148.2290 O   0  0  0  0  0  0  0  0  0  0  0  0
  135.9150  134.9130  147.4440 O   0  0  0  0  0  0  0  0  0  0  0  0
  135.4810  134.2180  146.9890 H   0  0  0  0  0  0  0  0  0  0  0  0
  135.9880  137.4040  155.5860 O   0  0  0  0  0  0  0  0  0  0  0  0
  136.9390  137.6520  156.6190 C   0  0  0  0  0  2  0  0  0  0  0  0
  138.3810  137.7270  156.1120 C   0  0  0  0  0  0  0  0  0  0  0  0
  139.2780  137.0440  156.5970 O   0  0  0  0  0  0  0  0  0  0  0  0
  138.5720  138.6010  155.0640 N   0  0  0  0  0  0  0  0  0  0  0  0
  137.8030  139.1210  154.7340 H   0  0  0  0  0  0  0  0  0  0  0  0
  139.8560  138.7820  154.4300 C   0  0  0  0  0  2  0  0  0  0  0  0
  139.9300  138.1420  153.0650 C   0  0  0  0  0  0  0  0  0  0  0  0
  138.7520  137.9080  152.3340 C   0  0  0  0  0  3  0  0  0  0  0  0
  138.8090  137.3600  151.0510 C   0  0  0  0  0  3  0  0  0  0  0  0
  140.0400  137.0340  150.5000 C   0  0  0  0  0  0  0  0  0  0  0  0
  140.0960  136.5170  149.2660 F   0  0  0  0  0  0  0  0  0  0  0  0
  141.2180  137.2410  151.2100 C   0  0  0  0  0  3  0  0  0  0  0  0
  141.1640  137.7910  152.4940 C   0  0  0  0  0  3  0  0  0  0  0  0
  1 15  1  0  0  0  0
  1  2  2  0  0  0  0
  3  4  2  0  0  0  0
  4  1  1  0  0  0  0
  5  6  1  0  0  0  0
  6  7  2  0  0  0  0
  7  3  1  0  0  0  0
  8  7  1  0  0  0  0
  9  8  2  0  0  0  0
 10  5  2  0  0  0  0
 10  9  1  0  0  0  0
 12 11  1  0  0  0  0
 12  5  1  0  0  0  0
 13 10  1  0  0  0  0
 14 13  1  0  0  0  0
 15 16  1  0  0  0  0
 17 18  2  0  0  0  0
 17 16  1  0  0  0  0
 19 17  1  0  0  0  0
 20 19  1  0  0  0  0
 21 19  1  0  0  0  0
 22 21  1  0  0  0  0
 23 22  2  0  0  0  0
 24 23  1  0  0  0  0
 25 24  2  0  0  0  0
 25 27  1  0  0  0  0
 26 25  1  0  0  0  0
 27 28  2  0  0  0  0
 28 22  1  0  0  0  0
M  END
>  <MODEL>
3

>  <REMARK>
 VINA RESULT:    -7.570      1.703      2.413
 INTER + INTRA:         -11.989
 INTER:                 -10.393
 INTRA:                  -1.595
 UNBOUND:                -0.657
  Name = CHEMBL1701358
  10 active torsions:
  status: ('A' for Active; 'I' for Inactive)
    1  A    between atoms: C_1  and  O_2
    2  A    between atoms: O_2  and  C_3
    3  A    between atoms: C_5  and  C_6
    4  A    between atoms: C_7  and  C_8
    5  A    between atoms: C_8  and  O_10
    6  A    between atoms: O_10  and  C_11
    7  A    between atoms: C_11  and  C_12
    8  A    between atoms: N_14  and  C_15
    9  A    between atoms: C_15  and  C_16
   10  A    between atoms: C_25  and  O_26
                            x       y       z     vdW  Elec       q    Type
                         _______ _______ _______ _____ _____    ______ ____

>  <TORSDO>
F 9

>  <SCORE>
-7.570

>  <RMSD_LB>
1.703

>  <RMSD_UB>
2.413

$$$$
CHEMBL1701358
 OpenBabel10172500273D

 28 29  0  0  0  0  0  0  0  0999 V2000
  147.6900  135.9190  149.4850 C   0  0  0  0  0  0  0  0  0  0  0  0
  147.6480  134.7020  149.3910 O   0  0  0  0  0  0  0  0  0  0  0  0
  146.0430  136.9970  150.9500 C   0  0  0  0  0  3  0  0  0  0  0  0
  147.3250  136.7110  150.6790 C   0  0  0  0  0  3  0  0  0  0  0  0
  145.8400  138.5320  154.4280 C   0  0  0  0  0  0  0  0  0  0  0  0
  146.2750  137.7580  153.3450 C   0  0  0  0  0  3  0  0  0  0  0  0
  145.5940  137.7800  152.1150 C   0  0  0  0  0  0  0  0  0  0  0  0
  144.4800  138.6200  151.9770 C   0  0  0  0  0  3  0  0  0  0  0  0
  144.0350  139.3970  153.0490 C   0  0  0  0  0  3  0  0  0  0  0  0
  144.7110  139.3450  154.2660 C   0  0  0  0  0  0  0  0  0  0  0  0
  147.8380  138.8090  155.7020 C   0  0  0  0  0  1  0  0  0  0  0  0
  146.4400  138.5660  155.6590 O   0  0  0  0  0  0  0  0  0  0  0  0
  144.2750  140.1040  155.3200 O   0  0  0  0  0  0  0  0  0  0  0  0
  144.0610  139.6950  156.1350 H   0  0  0  0  0  0  0  0  0  0  0  0
  148.0790  136.7830  148.5160 O   0  0  0  0  0  0  0  0  0  0  0  0
  147.1550  136.9420  147.4420 C   0  0  0  0  0  2  0  0  0  0  0  0
  146.2240  138.1440  147.6150 C   0  0  0  0  0  0  0  0  0  0  0  0
  145.0350  138.0960  147.3130 O   0  0  0  0  0  0  0  0  0  0  0  0
  146.8270  139.2600  148.1530 N   0  0  0  0  0  0  0  0  0  0  0  0
  147.7890  139.2240  148.3630 H   0  0  0  0  0  0  0  0  0  0  0  0
  146.1020  140.4780  148.4220 C   0  0  0  0  0  2  0  0  0  0  0  0
  146.3020  140.9790  149.8320 C   0  0  0  0  0  0  0  0  0  0  0  0
  147.3940  140.5230  150.5920 C   0  0  0  0  0  3  0  0  0  0  0  0
  147.6170  141.0120  151.8800 C   0  0  0  0  0  3  0  0  0  0  0  0
  146.7460  141.9490  152.4170 C   0  0  0  0  0  0  0  0  0  0  0  0
  146.9640  142.4250  153.6490 F   0  0  0  0  0  0  0  0  0  0  0  0
  145.6490  142.4020  151.6920 C   0  0  0  0  0  3  0  0  0  0  0  0
  145.4240  141.9150  150.4010 C   0  0  0  0  0  3  0  0  0  0  0  0
  1  4  1  0  0  0  0
  2  1  2  0  0  0  0
  3  7  1  0  0  0  0
  4  3  2  0  0  0  0
  5 12  1  0  0  0  0
  6  5  2  0  0  0  0
  7  6  1  0  0  0  0
  8  7  2  0  0  0  0
  8  9  1  0  0  0  0
  9 10  2  0  0  0  0
 10  5  1  0  0  0  0
 10 13  1  0  0  0  0
 12 11  1  0  0  0  0
 13 14  1  0  0  0  0
 15  1  1  0  0  0  0
 16 17  1  0  0  0  0
 16 15  1  0  0  0  0
 17 19  1  0  0  0  0
 18 17  2  0  0  0  0
 19 20  1  0  0  0  0
 19 21  1  0  0  0  0
 21 22  1  0  0  0  0
 22 28  2  0  0  0  0
 22 23  1  0  0  0  0
 23 24  2  0  0  0  0
 24 25  1  0  0  0  0
 25 26  1  0  0  0  0
 27 25  2  0  0  0  0
 28 27  1  0  0  0  0
M  END
>  <MODEL>
4

>  <REMARK>
 VINA RESULT:    -7.550      9.083     11.602
 INTER + INTRA:         -11.959
 INTER:                  -9.418
 INTRA:                  -2.541
 UNBOUND:                -0.657
  Name = CHEMBL1701358
  10 active torsions:
  status: ('A' for Active; 'I' for Inactive)
    1  A    between atoms: C_1  and  O_2
    2  A    between atoms: O_2  and  C_3
    3  A    between atoms: C_5  and  C_6
    4  A    between atoms: C_7  and  C_8
    5  A    between atoms: C_8  and  O_10
    6  A    between atoms: O_10  and  C_11
    7  A    between atoms: C_11  and  C_12
    8  A    between atoms: N_14  and  C_15
    9  A    between atoms: C_15  and  C_16
   10  A    between atoms: C_25  and  O_26
                            x       y       z     vdW  Elec       q    Type
                         _______ _______ _______ _____ _____    ______ ____

>  <TORSDO>
F 9

>  <SCORE>
-7.550

>  <RMSD_LB>
9.083

>  <RMSD_UB>
11.602

$$$$
CHEMBL1701358
 OpenBabel10172500273D

 28 29  0  0  0  0  0  0  0  0999 V2000
  147.1010  135.3750  148.9460 C   0  0  0  0  0  0  0  0  0  0  0  0
  147.3180  134.1750  148.8850 O   0  0  0  0  0  0  0  0  0  0  0  0
  146.7040  136.4260  151.1290 C   0  0  0  0  0  3  0  0  0  0  0  0
  147.4930  136.2730  150.0530 C   0  0  0  0  0  3  0  0  0  0  0  0
  146.3520  138.6360  154.2080 C   0  0  0  0  0  0  0  0  0  0  0  0
  146.0220  137.8290  153.1120 C   0  0  0  0  0  3  0  0  0  0  0  0
  147.0180  137.2990  152.2730 C   0  0  0  0  0  0  0  0  0  0  0  0
  148.3620  137.5670  152.5710 C   0  0  0  0  0  3  0  0  0  0  0  0
  148.7050  138.3700  153.6610 C   0  0  0  0  0  3  0  0  0  0  0  0
  147.7020  138.9030  154.4670 C   0  0  0  0  0  0  0  0  0  0  0  0
  144.2130  139.6450  154.5290 C   0  0  0  0  0  1  0  0  0  0  0  0
  145.4460  139.1950  155.0700 O   0  0  0  0  0  0  0  0  0  0  0  0
  148.0350  139.6940  155.5350 O   0  0  0  0  0  0  0  0  0  0  0  0
  148.3580  139.3050  156.3240 H   0  0  0  0  0  0  0  0  0  0  0  0
  146.4610  136.1210  148.0140 O   0  0  0  0  0  0  0  0  0  0  0  0
  145.0370  136.0840  148.0840 C   0  0  0  0  0  2  0  0  0  0  0  0
  144.4060  137.4540  148.3420 C   0  0  0  0  0  0  0  0  0  0  0  0
  143.2070  137.5860  148.5670 O   0  0  0  0  0  0  0  0  0  0  0  0
  145.2960  138.5050  148.3220 N   0  0  0  0  0  0  0  0  0  0  0  0
  146.2440  138.3200  148.1260 H   0  0  0  0  0  0  0  0  0  0  0  0
  144.8930  139.8660  148.5770 C   0  0  0  0  0  2  0  0  0  0  0  0
  145.5980  140.4720  149.7660 C   0  0  0  0  0  0  0  0  0  0  0  0
  144.8670  141.1960  150.7240 C   0  0  0  0  0  3  0  0  0  0  0  0
  145.4980  141.7230  151.8520 C   0  0  0  0  0  3  0  0  0  0  0  0
  146.8630  141.5380  152.0210 C   0  0  0  0  0  0  0  0  0  0  0  0
  147.4680  142.0350  153.1080 F   0  0  0  0  0  0  0  0  0  0  0  0
  147.6110  140.8410  151.0790 C   0  0  0  0  0  3  0  0  0  0  0  0
  146.9810  140.3110  149.9490 C   0  0  0  0  0  3  0  0  0  0  0  0
  1  4  1  0  0  0  0
  2  1  2  0  0  0  0
  3  7  1  0  0  0  0
  4  3  2  0  0  0  0
  5 10  1  0  0  0  0
  5 12  1  0  0  0  0
  6  5  2  0  0  0  0
  7  8  2  0  0  0  0
  7  6  1  0  0  0  0
  8  9  1  0  0  0  0
  9 10  2  0  0  0  0
 10 13  1  0  0  0  0
 11 12  1  0  0  0  0
 13 14  1  0  0  0  0
 15 16  1  0  0  0  0
 15  1  1  0  0  0  0
 16 17  1  0  0  0  0
 17 18  2  0  0  0  0
 19 17  1  0  0  0  0
 19 21  1  0  0  0  0
 20 19  1  0  0  0  0
 21 22  1  0  0  0  0
 22 28  2  0  0  0  0
 22 23  1  0  0  0  0
 23 24  2  0  0  0  0
 24 25  1  0  0  0  0
 25 26  1  0  0  0  0
 27 25  2  0  0  0  0
 28 27  1  0  0  0  0
M  END
>  <MODEL>
5

>  <REMARK>
 VINA RESULT:    -7.128      8.740     11.679
 INTER + INTRA:         -11.326
 INTER:                  -8.923
 INTRA:                  -2.403
 UNBOUND:                -0.657
  Name = CHEMBL1701358
  10 active torsions:
  status: ('A' for Active; 'I' for Inactive)
    1  A    between atoms: C_1  and  O_2
    2  A    between atoms: O_2  and  C_3
    3  A    between atoms: C_5  and  C_6
    4  A    between atoms: C_7  and  C_8
    5  A    between atoms: C_8  and  O_10
    6  A    between atoms: O_10  and  C_11
    7  A    between atoms: C_11  and  C_12
    8  A    between atoms: N_14  and  C_15
    9  A    between atoms: C_15  and  C_16
   10  A    between atoms: C_25  and  O_26
                            x       y       z     vdW  Elec       q    Type
                         _______ _______ _______ _____ _____    ______ ____

>  <TORSDO>
F 9

>  <SCORE>
-7.128

>  <RMSD_LB>
8.740

>  <RMSD_UB>
11.679

$$$$
CHEMBL1701358
 OpenBabel10172500273D

 28 29  0  0  0  0  0  0  0  0999 V2000
  136.4830  136.5570  154.4320 C   0  0  0  0  0  0  0  0  0  0  0  0
  135.9540  136.2780  155.4970 O   0  0  0  0  0  0  0  0  0  0  0  0
  134.8340  135.5460  152.9220 C   0  0  0  0  0  3  0  0  0  0  0  0
  136.0470  136.0920  153.0990 C   0  0  0  0  0  3  0  0  0  0  0  0
  133.7520  135.3850  149.2750 C   0  0  0  0  0  0  0  0  0  0  0  0
  134.2190  135.8850  150.4980 C   0  0  0  0  0  3  0  0  0  0  0  0
  134.3220  135.0560  151.6290 C   0  0  0  0  0  0  0  0  0  0  0  0
  133.9780  133.7030  151.5070 C   0  0  0  0  0  3  0  0  0  0  0  0
  133.5120  133.1910  150.2940 C   0  0  0  0  0  3  0  0  0  0  0  0
  133.3960  134.0340  149.1900 C   0  0  0  0  0  0  0  0  0  0  0  0
  132.5910  137.1040  148.0950 C   0  0  0  0  0  1  0  0  0  0  0  0
  133.6160  136.1220  148.1290 O   0  0  0  0  0  0  0  0  0  0  0  0
  132.9360  133.5360  147.9990 O   0  0  0  0  0  0  0  0  0  0  0  0
  132.8670  134.0970  147.2520 H   0  0  0  0  0  0  0  0  0  0  0  0
  137.5710  137.3460  154.2610 O   0  0  0  0  0  0  0  0  0  0  0  0
  138.0780  137.9410  155.4540 C   0  0  0  0  0  2  0  0  0  0  0  0
  139.6060  137.9310  155.5350 C   0  0  0  0  0  0  0  0  0  0  0  0
  140.2010  137.6220  156.5630 O   0  0  0  0  0  0  0  0  0  0  0  0
  140.2420  138.2730  154.3620 N   0  0  0  0  0  0  0  0  0  0  0  0
  139.6950  138.5170  153.5800 H   0  0  0  0  0  0  0  0  0  0  0  0
  141.6790  138.2860  154.2350 C   0  0  0  0  0  2  0  0  0  0  0  0
  142.1560  137.7160  152.9220 C   0  0  0  0  0  0  0  0  0  0  0  0
  141.2320  137.4390  151.8990 C   0  0  0  0  0  3  0  0  0  0  0  0
  141.6640  136.9540  150.6630 C   0  0  0  0  0  3  0  0  0  0  0  0
  143.0170  136.7340  150.4490 C   0  0  0  0  0  0  0  0  0  0  0  0
  143.4330  136.2780  149.2600 F   0  0  0  0  0  0  0  0  0  0  0  0
  143.9490  136.9840  151.4510 C   0  0  0  0  0  3  0  0  0  0  0  0
  143.5190  137.4710  152.6890 C   0  0  0  0  0  3  0  0  0  0  0  0
  1  2  2  0  0  0  0
  3  4  2  0  0  0  0
  4  1  1  0  0  0  0
  5  6  1  0  0  0  0
  6  7  2  0  0  0  0
  7  3  1  0  0  0  0
  8  7  1  0  0  0  0
  9  8  2  0  0  0  0
 10  5  2  0  0  0  0
 10  9  1  0  0  0  0
 11 12  1  0  0  0  0
 12  5  1  0  0  0  0
 13 10  1  0  0  0  0
 14 13  1  0  0  0  0
 15  1  1  0  0  0  0
 15 16  1  0  0  0  0
 16 17  1  0  0  0  0
 17 18  2  0  0  0  0
 19 17  1  0  0  0  0
 20 19  1  0  0  0  0
 21 19  1  0  0  0  0
 22 21  1  0  0  0  0
 23 22  2  0  0  0  0
 24 23  1  0  0  0  0
 25 24  2  0  0  0  0
 25 27  1  0  0  0  0
 26 25  1  0  0  0  0
 27 28  2  0  0  0  0
 28 22  1  0  0  0  0
M  END
>  <MODEL>
6

>  <REMARK>
 VINA RESULT:    -6.843      2.036      2.761
 INTER + INTRA:         -10.901
 INTER:                 -10.319
 INTRA:                  -0.581
 UNBOUND:                -0.657
  Name = CHEMBL1701358
  10 active torsions:
  status: ('A' for Active; 'I' for Inactive)
    1  A    between atoms: C_1  and  O_2
    2  A    between atoms: O_2  and  C_3
    3  A    between atoms: C_5  and  C_6
    4  A    between atoms: C_7  and  C_8
    5  A    between atoms: C_8  and  O_10
    6  A    between atoms: O_10  and  C_11
    7  A    between atoms: C_11  and  C_12
    8  A    between atoms: N_14  and  C_15
    9  A    between atoms: C_15  and  C_16
   10  A    between atoms: C_25  and  O_26
                            x       y       z     vdW  Elec       q    Type
                         _______ _______ _______ _____ _____    ______ ____

>  <TORSDO>
F 9

>  <SCORE>
-6.843

>  <RMSD_LB>
2.036

>  <RMSD_UB>
2.761

$$$$
CHEMBL1701358
 OpenBabel10172500273D

 28 29  0  0  0  0  0  0  0  0999 V2000
  138.2680  137.7360  152.9620 C   0  0  0  0  0  0  0  0  0  0  0  0
  139.3710  138.2570  153.0140 O   0  0  0  0  0  0  0  0  0  0  0  0
  137.5010  137.5440  150.6380 C   0  0  0  0  0  3  0  0  0  0  0  0
  137.7270  136.9600  151.8250 C   0  0  0  0  0  3  0  0  0  0  0  0
  135.2410  136.5030  147.7570 C   0  0  0  0  0  0  0  0  0  0  0  0
  135.7150  137.1660  148.8970 C   0  0  0  0  0  3  0  0  0  0  0  0
  136.9640  136.8460  149.4560 C   0  0  0  0  0  0  0  0  0  0  0  0
  137.7510  135.8670  148.8340 C   0  0  0  0  0  3  0  0  0  0  0  0
  137.2910  135.1980  147.6970 C   0  0  0  0  0  3  0  0  0  0  0  0
  136.0410  135.5150  147.1700 C   0  0  0  0  0  0  0  0  0  0  0  0
  132.9200  137.0080  147.9900 C   0  0  0  0  0  1  0  0  0  0  0  0
  134.0370  136.7480  147.1520 O   0  0  0  0  0  0  0  0  0  0  0  0
  135.5850  134.8580  146.0570 O   0  0  0  0  0  0  0  0  0  0  0  0
  136.0580  134.9200  145.2510 H   0  0  0  0  0  0  0  0  0  0  0  0
  137.3230  137.7620  153.9330 O   0  0  0  0  0  0  0  0  0  0  0  0
  137.3550  136.6590  154.8350 C   0  0  0  0  0  2  0  0  0  0  0  0
  136.0360  135.8840  154.8940 C   0  0  0  0  0  0  0  0  0  0  0  0
  135.3780  135.7970  155.9260 O   0  0  0  0  0  0  0  0  0  0  0  0
  135.6510  135.3230  153.6970 N   0  0  0  0  0  0  0  0  0  0  0  0
  136.2380  135.4290  152.9120 H   0  0  0  0  0  0  0  0  0  0  0  0
  134.4200  134.5840  153.5480 C   0  0  0  0  0  2  0  0  0  0  0  0
  134.0850  134.2910  152.1050 C   0  0  0  0  0  0  0  0  0  0  0  0
  135.0980  133.9010  151.2130 C   0  0  0  0  0  3  0  0  0  0  0  0
  134.7960  133.5830  149.8880 C   0  0  0  0  0  3  0  0  0  0  0  0
  133.4820  133.6630  149.4480 C   0  0  0  0  0  0  0  0  0  0  0  0
  133.1890  133.3490  148.1790 F   0  0  0  0  0  0  0  0  0  0  0  0
  132.4640  134.0630  150.3070 C   0  0  0  0  0  3  0  0  0  0  0  0
  132.7650  134.3810  151.6350 C   0  0  0  0  0  3  0  0  0  0  0  0
  1  2  2  0  0  0  0
  1 15  1  0  0  0  0
  3  4  2  0  0  0  0
  4  1  1  0  0  0  0
  5  6  1  0  0  0  0
  6  7  2  0  0  0  0
  7  3  1  0  0  0  0
  8  7  1  0  0  0  0
  9  8  2  0  0  0  0
 10  9  1  0  0  0  0
 10  5  2  0  0  0  0
 12  5  1  0  0  0  0
 12 11  1  0  0  0  0
 13 10  1  0  0  0  0
 14 13  1  0  0  0  0
 15 16  1  0  0  0  0
 16 17  1  0  0  0  0
 17 18  2  0  0  0  0
 19 17  1  0  0  0  0
 20 19  1  0  0  0  0
 21 19  1  0  0  0  0
 22 21  1  0  0  0  0
 23 22  2  0  0  0  0
 24 23  1  0  0  0  0
 25 24  2  0  0  0  0
 25 27  1  0  0  0  0
 26 25  1  0  0  0  0
 27 28  2  0  0  0  0
 28 22  1  0  0  0  0
M  END
>  <MODEL>
7

>  <REMARK>
 VINA RESULT:    -6.806      2.671      5.224
 INTER + INTRA:         -10.845
 INTER:                  -9.053
 INTRA:                  -1.792
 UNBOUND:                -0.657
  Name = CHEMBL1701358
  10 active torsions:
  status: ('A' for Active; 'I' for Inactive)
    1  A    between atoms: C_1  and  O_2
    2  A    between atoms: O_2  and  C_3
    3  A    between atoms: C_5  and  C_6
    4  A    between atoms: C_7  and  C_8
    5  A    between atoms: C_8  and  O_10
    6  A    between atoms: O_10  and  C_11
    7  A    between atoms: C_11  and  C_12
    8  A    between atoms: N_14  and  C_15
    9  A    between atoms: C_15  and  C_16
   10  A    between atoms: C_25  and  O_26
                            x       y       z     vdW  Elec       q    Type
                         _______ _______ _______ _____ _____    ______ ____

>  <TORSDO>
F 9

>  <SCORE>
-6.806

>  <RMSD_LB>
2.671

>  <RMSD_UB>
5.224

$$$$
CHEMBL1701358
 OpenBabel10172500273D

 28 29  0  0  0  0  0  0  0  0999 V2000
  137.9320  139.4120  149.6180 C   0  0  0  0  0  0  0  0  0  0  0  0
  137.3180  140.2970  149.0440 O   0  0  0  0  0  0  0  0  0  0  0  0
  139.8430  138.5670  150.9050 C   0  0  0  0  0  3  0  0  0  0  0  0
  139.3420  139.4790  150.0580 C   0  0  0  0  0  3  0  0  0  0  0  0
  143.4130  139.6250  151.7010 C   0  0  0  0  0  0  0  0  0  0  0  0
  142.1040  139.6480  151.2020 C   0  0  0  0  0  3  0  0  0  0  0  0
  141.2340  138.5610  151.3940 C   0  0  0  0  0  0  0  0  0  0  0  0
  141.6880  137.4550  152.1260 C   0  0  0  0  0  3  0  0  0  0  0  0
  142.9910  137.4190  152.6290 C   0  0  0  0  0  3  0  0  0  0  0  0
  143.8450  138.4980  152.4090 C   0  0  0  0  0  0  0  0  0  0  0  0
  144.8480  140.8680  150.2550 C   0  0  0  0  0  1  0  0  0  0  0  0
  144.3250  140.6360  151.5540 O   0  0  0  0  0  0  0  0  0  0  0  0
  145.1240  138.4630  152.8980 O   0  0  0  0  0  0  0  0  0  0  0  0
  145.4730  137.6650  153.2420 H   0  0  0  0  0  0  0  0  0  0  0  0
  137.4460  138.1970  149.9680 O   0  0  0  0  0  0  0  0  0  0  0  0
  136.9280  137.4210  148.8890 C   0  0  0  0  0  2  0  0  0  0  0  0
  138.0100  136.9090  147.9350 C   0  0  0  0  0  0  0  0  0  0  0  0
  138.0480  137.2430  146.7550 O   0  0  0  0  0  0  0  0  0  0  0  0
  138.9360  136.0730  148.5190 N   0  0  0  0  0  0  0  0  0  0  0  0
  138.8340  135.8440  149.4720 H   0  0  0  0  0  0  0  0  0  0  0  0
  140.0490  135.5180  147.7870 C   0  0  0  0  0  2  0  0  0  0  0  0
  141.3760  136.0990  148.2130 C   0  0  0  0  0  0  0  0  0  0  0  0
  142.2710  135.3250  148.9730 C   0  0  0  0  0  3  0  0  0  0  0  0
  143.5200  135.8330  149.3340 C   0  0  0  0  0  3  0  0  0  0  0  0
  143.8750  137.1170  148.9480 C   0  0  0  0  0  0  0  0  0  0  0  0
  145.0770  137.6010  149.2860 F   0  0  0  0  0  0  0  0  0  0  0  0
  143.0000  137.9080  148.2100 C   0  0  0  0  0  3  0  0  0  0  0  0
  141.7490  137.4020  147.8460 C   0  0  0  0  0  3  0  0  0  0  0  0
  1 15  1  0  0  0  0
  1  4  1  0  0  0  0
  2  1  2  0  0  0  0
  3  7  1  0  0  0  0
  4  3  2  0  0  0  0
  5 10  1  0  0  0  0
  6  7  1  0  0  0  0
  6  5  2  0  0  0  0
  7  8  2  0  0  0  0
  8  9  1  0  0  0  0
 10  9  2  0  0  0  0
 10 13  1  0  0  0  0
 11 12  1  0  0  0  0
 12  5  1  0  0  0  0
 13 14  1  0  0  0  0
 16 15  1  0  0  0  0
 17 19  1  0  0  0  0
 17 16  1  0  0  0  0
 18 17  2  0  0  0  0
 19 20  1  0  0  0  0
 21 22  1  0  0  0  0
 21 19  1  0  0  0  0
 22 23  1  0  0  0  0
 23 24  2  0  0  0  0
 25 26  1  0  0  0  0
 25 24  1  0  0  0  0
 27 25  2  0  0  0  0
 28 27  1  0  0  0  0
 28 22  2  0  0  0  0
M  END
>  <MODEL>
8

>  <REMARK>
 VINA RESULT:    -6.616      4.404      7.697
 INTER + INTRA:         -10.561
 INTER:                  -7.625
 INTRA:                  -2.935
 UNBOUND:                -0.657
  Name = CHEMBL1701358
  10 active torsions:
  status: ('A' for Active; 'I' for Inactive)
    1  A    between atoms: C_1  and  O_2
    2  A    between atoms: O_2  and  C_3
    3  A    between atoms: C_5  and  C_6
    4  A    between atoms: C_7  and  C_8
    5  A    between atoms: C_8  and  O_10
    6  A    between atoms: O_10  and  C_11
    7  A    between atoms: C_11  and  C_12
    8  A    between atoms: N_14  and  C_15
    9  A    between atoms: C_15  and  C_16
   10  A    between atoms: C_25  and  O_26
                            x       y       z     vdW  Elec       q    Type
                         _______ _______ _______ _____ _____    ______ ____

>  <TORSDO>
F 9

>  <SCORE>
-6.616

>  <RMSD_LB>
4.404

>  <RMSD_UB>
7.697

$$$$
CHEMBL1701358
 OpenBabel10172500273D

 28 29  0  0  0  0  0  0  0  0999 V2000
  136.6780  136.5670  152.5550 C   0  0  0  0  0  0  0  0  0  0  0  0
  136.2440  136.2680  153.6560 O   0  0  0  0  0  0  0  0  0  0  0  0
  135.2090  135.1370  151.2050 C   0  0  0  0  0  3  0  0  0  0  0  0
  136.1610  136.0820  151.2580 C   0  0  0  0  0  3  0  0  0  0  0  0
  134.7560  134.1460  147.5570 C   0  0  0  0  0  0  0  0  0  0  0  0
  135.3090  134.6910  148.7240 C   0  0  0  0  0  3  0  0  0  0  0  0
  134.6410  134.5970  149.9570 C   0  0  0  0  0  0  0  0  0  0  0  0
  133.4170  133.9160  150.0110 C   0  0  0  0  0  3  0  0  0  0  0  0
  132.8540  133.3670  148.8560 C   0  0  0  0  0  3  0  0  0  0  0  0
  133.5220  133.4890  147.6390 C   0  0  0  0  0  0  0  0  0  0  0  0
  136.2430  135.2580  146.0590 C   0  0  0  0  0  1  0  0  0  0  0  0
  135.3350  134.1970  146.3170 O   0  0  0  0  0  0  0  0  0  0  0  0
  132.9710  132.9550  146.5040 O   0  0  0  0  0  0  0  0  0  0  0  0
  132.4150  132.2030  146.5620 H   0  0  0  0  0  0  0  0  0  0  0  0
  137.7140  137.4030  152.3030 O   0  0  0  0  0  0  0  0  0  0  0  0
  137.9810  137.6320  150.9210 C   0  0  0  0  0  2  0  0  0  0  0  0
  139.1170  138.6300  150.6800 C   0  0  0  0  0  0  0  0  0  0  0  0
  138.9040  139.8200  150.4670 O   0  0  0  0  0  0  0  0  0  0  0  0
  140.3800  138.0830  150.7460 N   0  0  0  0  0  0  0  0  0  0  0  0
  140.4700  137.1160  150.9130 H   0  0  0  0  0  0  0  0  0  0  0  0
  141.5760  138.8740  150.5800 C   0  0  0  0  0  2  0  0  0  0  0  0
  142.3590  139.0260  151.8610 C   0  0  0  0  0  0  0  0  0  0  0  0
  141.8620  138.4820  153.0580 C   0  0  0  0  0  3  0  0  0  0  0  0
  142.5980  138.5750  154.2410 C   0  0  0  0  0  3  0  0  0  0  0  0
  143.8260  139.2200  154.2340 C   0  0  0  0  0  0  0  0  0  0  0  0
  144.5360  139.3020  155.3660 F   0  0  0  0  0  0  0  0  0  0  0  0
  144.3310  139.7820  153.0660 C   0  0  0  0  0  3  0  0  0  0  0  0
  143.5970  139.6890  151.8800 C   0  0  0  0  0  3  0  0  0  0  0  0
  1  2  2  0  0  0  0
  3  4  2  0  0  0  0
  4  1  1  0  0  0  0
  5 10  2  0  0  0  0
  5  6  1  0  0  0  0
  6  7  2  0  0  0  0
  7  8  1  0  0  0  0
  7  3  1  0  0  0  0
  9  8  2  0  0  0  0
 10  9  1  0  0  0  0
 11 12  1  0  0  0  0
 12  5  1  0  0  0  0
 13 14  1  0  0  0  0
 13 10  1  0  0  0  0
 15  1  1  0  0  0  0
 16 15  1  0  0  0  0
 17 19  1  0  0  0  0
 17 16  1  0  0  0  0
 18 17  2  0  0  0  0
 19 20  1  0  0  0  0
 21 19  1  0  0  0  0
 21 22  1  0  0  0  0
 22 28  2  0  0  0  0
 22 23  1  0  0  0  0
 23 24  2  0  0  0  0
 25 24  1  0  0  0  0
 25 26  1  0  0  0  0
 27 25  2  0  0  0  0
 28 27  1  0  0  0  0
M  END
>  <MODEL>
9

>  <REMARK>
 VINA RESULT:    -6.339      2.855      3.738
 INTER + INTRA:         -10.145
 INTER:                  -9.489
 INTRA:                  -0.657
 UNBOUND:                -0.657
  Name = CHEMBL1701358
  10 active torsions:
  status: ('A' for Active; 'I' for Inactive)
    1  A    between atoms: C_1  and  O_2
    2  A    between atoms: O_2  and  C_3
    3  A    between atoms: C_5  and  C_6
    4  A    between atoms: C_7  and  C_8
    5  A    between atoms: C_8  and  O_10
    6  A    between atoms: O_10  and  C_11
    7  A    between atoms: C_11  and  C_12
    8  A    between atoms: N_14  and  C_15
    9  A    between atoms: C_15  and  C_16
   10  A    between atoms: C_25  and  O_26
                            x       y       z     vdW  Elec       q    Type
                         _______ _______ _______ _____ _____    ______ ____

>  <TORSDO>
F 9

>  <SCORE>
-6.339

>  <RMSD_LB>
2.855

>  <RMSD_UB>
3.738

$$$$
