CHEMBL2071439
 OpenBabel10162523383D

 22 22  0  0  0  0  0  0  0  0999 V2000
  135.4720  134.4290  153.1200 C   0  0  0  0  0  2  0  0  0  0  0  0
  135.3900  135.7810  153.8060 C   0  0  0  0  0  0  0  0  0  0  0  0
  134.3100  136.2660  154.1340 O   0  0  0  0  0  0  0  0  0  0  0  0
  136.6950  136.4630  154.1200 C   0  0  0  0  0  2  0  0  0  0  0  0
  136.7800  136.9840  155.5250 C   0  0  0  0  0  0  0  0  0  0  0  0
  136.5740  138.1730  155.7720 O   0  0  0  0  0  0  0  0  0  0  0  0
  137.2000  136.0140  156.6090 C   0  0  0  0  0  2  0  0  0  0  0  0
  136.0830  135.9030  157.6390 C   0  0  0  0  0  2  0  0  0  0  0  0
  136.4360  134.9660  158.7910 C   0  0  0  0  0  2  0  0  0  0  0  0
  134.2660  135.8040  159.7600 C   0  0  0  0  0  1  0  0  0  0  0  0
  135.6960  135.3900  160.0610 C   0  0  0  0  0  2  0  0  0  0  0  0
  134.0730  133.9520  152.7330 C   0  0  0  0  0  2  0  0  0  0  0  0
  133.7290  134.1930  151.2880 C   0  0  0  0  0  0  0  0  0  0  0  0
  133.1350  135.3950  150.9000 C   0  0  0  0  0  3  0  0  0  0  0  0
  132.8050  135.6190  149.5620 C   0  0  0  0  0  3  0  0  0  0  0  0
  133.0730  134.6440  148.5950 C   0  0  0  0  0  0  0  0  0  0  0  0
  133.6580  133.4270  148.9630 C   0  0  0  0  0  0  0  0  0  0  0  0
  133.9770  133.2160  150.3140 C   0  0  0  0  0  3  0  0  0  0  0  0
  132.7460  134.9210  147.2960 O   0  0  0  0  0  0  0  0  0  0  0  0
  132.4090  135.7650  147.0680 H   0  0  0  0  0  0  0  0  0  0  0  0
  133.9840  132.3610  148.1690 O   0  0  0  0  0  0  0  0  0  0  0  0
  135.1790  132.4360  147.4060 C   0  0  0  0  0  1  0  0  0  0  0  0
  1  2  1  0  0  0  0
  2  4  1  0  0  0  0
  2  3  2  0  0  0  0
  4  5  1  0  0  0  0
  5  6  2  0  0  0  0
  5  7  1  0  0  0  0
  7  8  1  0  0  0  0
  8  9  1  0  0  0  0
  9 11  1  0  0  0  0
 10 11  1  0  0  0  0
 12  1  1  0  0  0  0
 13 12  1  0  0  0  0
 14 13  1  0  0  0  0
 15 14  2  0  0  0  0
 16 17  2  0  0  0  0
 16 15  1  0  0  0  0
 17 18  1  0  0  0  0
 18 13  2  0  0  0  0
 19 16  1  0  0  0  0
 20 19  1  0  0  0  0
 21 17  1  0  0  0  0
 22 21  1  0  0  0  0
M  END
>  <MODEL>
1

>  <REMARK>
 VINA RESULT:    -6.154      0.000      0.000
 INTER + INTRA:         -10.956
 INTER:                 -10.232
 INTRA:                  -0.724
 UNBOUND:                -1.024
  Name = CHEMBL2071439
  13 active torsions:
  status: ('A' for Active; 'I' for Inactive)
    1  A    between atoms: C_1  and  C_2
    2  A    between atoms: C_2  and  C_3
    3  A    between atoms: C_3  and  C_4
    4  A    between atoms: C_4  and  C_5
    5  A    between atoms: C_5  and  C_6
    6  A    between atoms: C_6  and  C_8
    7  A    between atoms: C_8  and  C_9
    8  A    between atoms: C_9  and  C_11
    9  A    between atoms: C_11  and  C_12
   10  A    between atoms: C_12  and  C_13
   11  A    between atoms: C_16  and  O_17
   12  A    between atoms: C_18  and  O_19
   13  A    between atoms: O_19  and  C_20
                            x       y       z     vdW  Elec       q    Type
                         _______ _______ _______ _____ _____    ______ ____

>  <TORSDO>
F 11

>  <SCORE>
-6.154

>  <RMSD_LB>
0.000

>  <RMSD_UB>
0.000

$$$$
CHEMBL2071439
 OpenBabel10162523383D

 22 22  0  0  0  0  0  0  0  0999 V2000
  144.4000  138.5870  151.9370 C   0  0  0  0  0  2  0  0  0  0  0  0
  145.3950  138.8430  153.0550 C   0  0  0  0  0  0  0  0  0  0  0  0
  145.0420  139.3370  154.1230 O   0  0  0  0  0  0  0  0  0  0  0  0
  146.8140  138.4040  152.8130 C   0  0  0  0  0  2  0  0  0  0  0  0
  147.8210  139.5090  152.9610 C   0  0  0  0  0  0  0  0  0  0  0  0
  148.5580  139.5630  153.9460 O   0  0  0  0  0  0  0  0  0  0  0  0
  147.8410  140.5860  151.8980 C   0  0  0  0  0  2  0  0  0  0  0  0
  147.5370  141.9320  152.5470 C   0  0  0  0  0  2  0  0  0  0  0  0
  146.0590  142.3050  152.4630 C   0  0  0  0  0  2  0  0  0  0  0  0
  146.2770  142.9840  150.0460 C   0  0  0  0  0  1  0  0  0  0  0  0
  145.5450  142.0980  151.0380 C   0  0  0  0  0  2  0  0  0  0  0  0
  143.5990  137.3190  152.2290 C   0  0  0  0  0  2  0  0  0  0  0  0
  142.1550  137.5780  152.5630 C   0  0  0  0  0  0  0  0  0  0  0  0
  141.1720  137.4290  151.5840 C   0  0  0  0  0  3  0  0  0  0  0  0
  139.8320  137.6780  151.8870 C   0  0  0  0  0  3  0  0  0  0  0  0
  139.4600  138.0710  153.1770 C   0  0  0  0  0  0  0  0  0  0  0  0
  140.4310  138.2360  154.1720 C   0  0  0  0  0  0  0  0  0  0  0  0
  141.7740  137.9890  153.8480 C   0  0  0  0  0  3  0  0  0  0  0  0
  138.1320  138.2850  153.4260 O   0  0  0  0  0  0  0  0  0  0  0  0
  137.7350  137.9210  154.1930 H   0  0  0  0  0  0  0  0  0  0  0  0
  140.2620  138.6200  155.4750 O   0  0  0  0  0  0  0  0  0  0  0  0
  139.7540  137.6630  156.3930 C   0  0  0  0  0  1  0  0  0  0  0  0
  1 12  1  0  0  0  0
  1  2  1  0  0  0  0
  2  3  2  0  0  0  0
  4  5  1  0  0  0  0
  4  2  1  0  0  0  0
  5  6  2  0  0  0  0
  7  8  1  0  0  0  0
  7  5  1  0  0  0  0
  9  8  1  0  0  0  0
 10 11  1  0  0  0  0
 11  9  1  0  0  0  0
 12 13  1  0  0  0  0
 13 18  1  0  0  0  0
 14 15  1  0  0  0  0
 14 13  2  0  0  0  0
 15 16  2  0  0  0  0
 16 19  1  0  0  0  0
 16 17  1  0  0  0  0
 17 21  1  0  0  0  0
 18 17  2  0  0  0  0
 19 20  1  0  0  0  0
 21 22  1  0  0  0  0
M  END
>  <MODEL>
2

>  <REMARK>
 VINA RESULT:    -6.056      8.519     11.326
 INTER + INTRA:         -10.797
 INTER:                  -9.802
 INTRA:                  -0.996
 UNBOUND:                -1.024
  Name = CHEMBL2071439
  13 active torsions:
  status: ('A' for Active; 'I' for Inactive)
    1  A    between atoms: C_1  and  C_2
    2  A    between atoms: C_2  and  C_3
    3  A    between atoms: C_3  and  C_4
    4  A    between atoms: C_4  and  C_5
    5  A    between atoms: C_5  and  C_6
    6  A    between atoms: C_6  and  C_8
    7  A    between atoms: C_8  and  C_9
    8  A    between atoms: C_9  and  C_11
    9  A    between atoms: C_11  and  C_12
   10  A    between atoms: C_12  and  C_13
   11  A    between atoms: C_16  and  O_17
   12  A    between atoms: C_18  and  O_19
   13  A    between atoms: O_19  and  C_20
                            x       y       z     vdW  Elec       q    Type
                         _______ _______ _______ _____ _____    ______ ____

>  <TORSDO>
F 11

>  <SCORE>
-6.056

>  <RMSD_LB>
8.519

>  <RMSD_UB>
11.326

$$$$
CHEMBL2071439
 OpenBabel10162523383D

 22 22  0  0  0  0  0  0  0  0999 V2000
  136.6500  133.6740  146.8420 C   0  0  0  0  0  2  0  0  0  0  0  0
  136.0140  132.3090  146.6480 C   0  0  0  0  0  0  0  0  0  0  0  0
  135.0040  131.9820  147.2650 O   0  0  0  0  0  0  0  0  0  0  0  0
  136.6430  131.4090  145.6180 C   0  0  0  0  0  2  0  0  0  0  0  0
  136.1220  131.6280  144.2270 C   0  0  0  0  0  0  0  0  0  0  0  0
  134.9180  131.5350  143.9820 O   0  0  0  0  0  0  0  0  0  0  0  0
  137.1340  131.8880  143.1320 C   0  0  0  0  0  2  0  0  0  0  0  0
  137.1930  133.3860  142.8540 C   0  0  0  0  0  2  0  0  0  0  0  0
  137.5010  133.7010  141.3930 C   0  0  0  0  0  2  0  0  0  0  0  0
  138.9380  133.0300  139.4340 C   0  0  0  0  0  1  0  0  0  0  0  0
  138.4300  132.6350  140.8090 C   0  0  0  0  0  2  0  0  0  0  0  0
  135.8080  134.7470  146.1530 C   0  0  0  0  0  2  0  0  0  0  0  0
  134.8550  135.4560  147.0780 C   0  0  0  0  0  0  0  0  0  0  0  0
  133.7210  136.0870  146.5650 C   0  0  0  0  0  3  0  0  0  0  0  0
  132.8390  136.7540  147.4170 C   0  0  0  0  0  3  0  0  0  0  0  0
  133.0790  136.7900  148.7950 C   0  0  0  0  0  0  0  0  0  0  0  0
  134.2150  136.1730  149.3290 C   0  0  0  0  0  0  0  0  0  0  0  0
  135.0950  135.5130  148.4580 C   0  0  0  0  0  3  0  0  0  0  0  0
  132.1750  137.4420  149.5870 O   0  0  0  0  0  0  0  0  0  0  0  0
  131.4920  137.9510  149.1970 H   0  0  0  0  0  0  0  0  0  0  0  0
  134.6190  136.1110  150.6360 O   0  0  0  0  0  0  0  0  0  0  0  0
  135.3030  134.9440  151.0690 C   0  0  0  0  0  1  0  0  0  0  0  0
  2  1  1  0  0  0  0
  2  3  2  0  0  0  0
  4  2  1  0  0  0  0
  5  4  1  0  0  0  0
  6  5  2  0  0  0  0
  7  5  1  0  0  0  0
  8  7  1  0  0  0  0
  9  8  1  0  0  0  0
 10 11  1  0  0  0  0
 11  9  1  0  0  0  0
 12  1  1  0  0  0  0
 12 13  1  0  0  0  0
 13 18  1  0  0  0  0
 14 13  2  0  0  0  0
 14 15  1  0  0  0  0
 15 16  2  0  0  0  0
 16 17  1  0  0  0  0
 16 19  1  0  0  0  0
 17 21  1  0  0  0  0
 18 17  2  0  0  0  0
 20 19  1  0  0  0  0
 21 22  1  0  0  0  0
M  END
>  <MODEL>
3

>  <REMARK>
 VINA RESULT:    -6.012      4.602     10.551
 INTER + INTRA:         -10.727
 INTER:                  -9.781
 INTRA:                  -0.947
 UNBOUND:                -1.024
  Name = CHEMBL2071439
  13 active torsions:
  status: ('A' for Active; 'I' for Inactive)
    1  A    between atoms: C_1  and  C_2
    2  A    between atoms: C_2  and  C_3
    3  A    between atoms: C_3  and  C_4
    4  A    between atoms: C_4  and  C_5
    5  A    between atoms: C_5  and  C_6
    6  A    between atoms: C_6  and  C_8
    7  A    between atoms: C_8  and  C_9
    8  A    between atoms: C_9  and  C_11
    9  A    between atoms: C_11  and  C_12
   10  A    between atoms: C_12  and  C_13
   11  A    between atoms: C_16  and  O_17
   12  A    between atoms: C_18  and  O_19
   13  A    between atoms: O_19  and  C_20
                            x       y       z     vdW  Elec       q    Type
                         _______ _______ _______ _____ _____    ______ ____

>  <TORSDO>
F 11

>  <SCORE>
-6.012

>  <RMSD_LB>
4.602

>  <RMSD_UB>
10.551

$$$$
CHEMBL2071439
 OpenBabel10162523383D

 22 22  0  0  0  0  0  0  0  0999 V2000
  145.8810  136.6170  153.1540 C   0  0  0  0  0  2  0  0  0  0  0  0
  147.2980  137.1590  153.1110 C   0  0  0  0  0  0  0  0  0  0  0  0
  147.9460  137.1700  152.0680 O   0  0  0  0  0  0  0  0  0  0  0  0
  147.8410  137.7380  154.3900 C   0  0  0  0  0  2  0  0  0  0  0  0
  147.1270  138.9790  154.8410 C   0  0  0  0  0  0  0  0  0  0  0  0
  146.3320  138.9440  155.7810 O   0  0  0  0  0  0  0  0  0  0  0  0
  147.3620  140.2500  154.0520 C   0  0  0  0  0  2  0  0  0  0  0  0
  146.0170  140.8850  153.7180 C   0  0  0  0  0  2  0  0  0  0  0  0
  146.1610  142.2620  153.0760 C   0  0  0  0  0  2  0  0  0  0  0  0
  144.7940  141.0520  151.3380 C   0  0  0  0  0  1  0  0  0  0  0  0
  145.7510  142.2010  151.6030 C   0  0  0  0  0  2  0  0  0  0  0  0
  145.0780  137.1540  151.9700 C   0  0  0  0  0  2  0  0  0  0  0  0
  143.6300  137.4110  152.2870 C   0  0  0  0  0  0  0  0  0  0  0  0
  142.6450  137.1330  151.3370 C   0  0  0  0  0  3  0  0  0  0  0  0
  141.3010  137.3790  151.6230 C   0  0  0  0  0  3  0  0  0  0  0  0
  140.9260  137.8980  152.8670 C   0  0  0  0  0  0  0  0  0  0  0  0
  141.8970  138.1930  153.8300 C   0  0  0  0  0  0  0  0  0  0  0  0
  143.2450  137.9470  153.5230 C   0  0  0  0  0  3  0  0  0  0  0  0
  139.5940  138.1040  153.1020 O   0  0  0  0  0  0  0  0  0  0  0  0
  139.3010  138.3380  153.9600 H   0  0  0  0  0  0  0  0  0  0  0  0
  141.7260  138.7100  155.0860 O   0  0  0  0  0  0  0  0  0  0  0  0
  142.6760  139.6540  155.5550 C   0  0  0  0  0  1  0  0  0  0  0  0
  2  1  1  0  0  0  0
  2  4  1  0  0  0  0
  3  2  2  0  0  0  0
  4  5  1  0  0  0  0
  5  6  2  0  0  0  0
  7  5  1  0  0  0  0
  8  7  1  0  0  0  0
  9  8  1  0  0  0  0
 10 11  1  0  0  0  0
 11  9  1  0  0  0  0
 12 13  1  0  0  0  0
 12  1  1  0  0  0  0
 13 18  1  0  0  0  0
 14 15  1  0  0  0  0
 14 13  2  0  0  0  0
 15 16  2  0  0  0  0
 16 19  1  0  0  0  0
 16 17  1  0  0  0  0
 17 21  1  0  0  0  0
 18 17  2  0  0  0  0
 19 20  1  0  0  0  0
 21 22  1  0  0  0  0
M  END
>  <MODEL>
4

>  <REMARK>
 VINA RESULT:    -5.959      8.781     11.564
 INTER + INTRA:         -10.640
 INTER:                  -9.188
 INTRA:                  -1.453
 UNBOUND:                -1.024
  Name = CHEMBL2071439
  13 active torsions:
  status: ('A' for Active; 'I' for Inactive)
    1  A    between atoms: C_1  and  C_2
    2  A    between atoms: C_2  and  C_3
    3  A    between atoms: C_3  and  C_4
    4  A    between atoms: C_4  and  C_5
    5  A    between atoms: C_5  and  C_6
    6  A    between atoms: C_6  and  C_8
    7  A    between atoms: C_8  and  C_9
    8  A    between atoms: C_9  and  C_11
    9  A    between atoms: C_11  and  C_12
   10  A    between atoms: C_12  and  C_13
   11  A    between atoms: C_16  and  O_17
   12  A    between atoms: C_18  and  O_19
   13  A    between atoms: O_19  and  C_20
                            x       y       z     vdW  Elec       q    Type
                         _______ _______ _______ _____ _____    ______ ____

>  <TORSDO>
F 11

>  <SCORE>
-5.959

>  <RMSD_LB>
8.781

>  <RMSD_UB>
11.564

$$$$
CHEMBL2071439
 OpenBabel10162523383D

 22 22  0  0  0  0  0  0  0  0999 V2000
  137.8320  137.3900  152.2880 C   0  0  0  0  0  2  0  0  0  0  0  0
  139.0760  137.9790  152.9290 C   0  0  0  0  0  0  0  0  0  0  0  0
  140.1830  137.8500  152.4110 O   0  0  0  0  0  0  0  0  0  0  0  0
  138.8770  138.7780  154.1880 C   0  0  0  0  0  2  0  0  0  0  0  0
  139.9750  138.6000  155.1960 C   0  0  0  0  0  0  0  0  0  0  0  0
  140.9910  139.2960  155.1540 O   0  0  0  0  0  0  0  0  0  0  0  0
  139.8210  137.4870  156.2110 C   0  0  0  0  0  2  0  0  0  0  0  0
  138.3540  137.3750  156.6090 C   0  0  0  0  0  2  0  0  0  0  0  0
  137.8940  135.9280  156.7590 C   0  0  0  0  0  2  0  0  0  0  0  0
  136.0040  135.1190  158.2160 C   0  0  0  0  0  1  0  0  0  0  0  0
  136.3780  135.8750  156.9540 C   0  0  0  0  0  2  0  0  0  0  0  0
  136.9930  136.6660  153.3390 C   0  0  0  0  0  2  0  0  0  0  0  0
  135.8810  135.8340  152.7580 C   0  0  0  0  0  0  0  0  0  0  0  0
  135.3970  134.7270  153.4560 C   0  0  0  0  0  3  0  0  0  0  0  0
  134.3730  133.9460  152.9170 C   0  0  0  0  0  3  0  0  0  0  0  0
  133.8150  134.2720  151.6760 C   0  0  0  0  0  0  0  0  0  0  0  0
  134.2910  135.3720  150.9550 C   0  0  0  0  0  0  0  0  0  0  0  0
  135.3260  136.1410  151.5080 C   0  0  0  0  0  3  0  0  0  0  0  0
  132.8010  133.4850  151.2020 O   0  0  0  0  0  0  0  0  0  0  0  0
  132.1130  133.2120  151.7760 H   0  0  0  0  0  0  0  0  0  0  0  0
  133.8810  135.8360  149.7340 O   0  0  0  0  0  0  0  0  0  0  0  0
  134.5620  135.3700  148.5790 C   0  0  0  0  0  1  0  0  0  0  0  0
  1  2  1  0  0  0  0
  1 12  1  0  0  0  0
  2  4  1  0  0  0  0
  3  2  2  0  0  0  0
  4  5  1  0  0  0  0
  5  7  1  0  0  0  0
  6  5  2  0  0  0  0
  7  8  1  0  0  0  0
  8  9  1  0  0  0  0
  9 11  1  0  0  0  0
 11 10  1  0  0  0  0
 13 12  1  0  0  0  0
 13 14  1  0  0  0  0
 15 14  2  0  0  0  0
 16 15  1  0  0  0  0
 17 18  1  0  0  0  0
 17 16  2  0  0  0  0
 18 13  2  0  0  0  0
 19 16  1  0  0  0  0
 19 20  1  0  0  0  0
 21 17  1  0  0  0  0
 22 21  1  0  0  0  0
M  END
>  <MODEL>
5

>  <REMARK>
 VINA RESULT:    -5.834      2.477      3.691
 INTER + INTRA:         -10.439
 INTER:                  -9.185
 INTRA:                  -1.254
 UNBOUND:                -1.024
  Name = CHEMBL2071439
  13 active torsions:
  status: ('A' for Active; 'I' for Inactive)
    1  A    between atoms: C_1  and  C_2
    2  A    between atoms: C_2  and  C_3
    3  A    between atoms: C_3  and  C_4
    4  A    between atoms: C_4  and  C_5
    5  A    between atoms: C_5  and  C_6
    6  A    between atoms: C_6  and  C_8
    7  A    between atoms: C_8  and  C_9
    8  A    between atoms: C_9  and  C_11
    9  A    between atoms: C_11  and  C_12
   10  A    between atoms: C_12  and  C_13
   11  A    between atoms: C_16  and  O_17
   12  A    between atoms: C_18  and  O_19
   13  A    between atoms: O_19  and  C_20
                            x       y       z     vdW  Elec       q    Type
                         _______ _______ _______ _____ _____    ______ ____

>  <TORSDO>
F 11

>  <SCORE>
-5.834

>  <RMSD_LB>
2.477

>  <RMSD_UB>
3.691

$$$$
CHEMBL2071439
 OpenBabel10162523383D

 22 22  0  0  0  0  0  0  0  0999 V2000
  143.0200  137.9820  149.9560 C   0  0  0  0  0  2  0  0  0  0  0  0
  144.5370  137.9270  149.9170 C   0  0  0  0  0  0  0  0  0  0  0  0
  145.1300  137.2780  149.0590 O   0  0  0  0  0  0  0  0  0  0  0  0
  145.2720  138.7540  150.9370 C   0  0  0  0  0  2  0  0  0  0  0  0
  145.5330  140.1650  150.4940 C   0  0  0  0  0  0  0  0  0  0  0  0
  146.3590  140.4080  149.6120 O   0  0  0  0  0  0  0  0  0  0  0  0
  144.8030  141.2750  151.2200 C   0  0  0  0  0  2  0  0  0  0  0  0
  145.8170  142.3080  151.6980 C   0  0  0  0  0  2  0  0  0  0  0  0
  146.4550  141.9330  153.0330 C   0  0  0  0  0  2  0  0  0  0  0  0
  148.6810  141.9200  154.2140 C   0  0  0  0  0  1  0  0  0  0  0  0
  147.9710  141.8110  152.8760 C   0  0  0  0  0  2  0  0  0  0  0  0
  142.4840  136.9620  150.9590 C   0  0  0  0  0  2  0  0  0  0  0  0
  141.3010  137.4550  151.7490 C   0  0  0  0  0  0  0  0  0  0  0  0
  140.0270  137.4530  151.1790 C   0  0  0  0  0  3  0  0  0  0  0  0
  138.9290  137.9180  151.9040 C   0  0  0  0  0  3  0  0  0  0  0  0
  139.0930  138.3820  153.2140 C   0  0  0  0  0  0  0  0  0  0  0  0
  140.3620  138.4020  153.8020 C   0  0  0  0  0  0  0  0  0  0  0  0
  141.4560  137.9380  153.0560 C   0  0  0  0  0  3  0  0  0  0  0  0
  137.9810  138.8100  153.8870 O   0  0  0  0  0  0  0  0  0  0  0  0
  137.1760  138.3360  153.8100 H   0  0  0  0  0  0  0  0  0  0  0  0
  140.7170  138.8250  155.0550 O   0  0  0  0  0  0  0  0  0  0  0  0
  140.6370  137.8920  156.1220 C   0  0  0  0  0  1  0  0  0  0  0  0
  1 12  1  0  0  0  0
  2  1  1  0  0  0  0
  2  4  1  0  0  0  0
  3  2  2  0  0  0  0
  5  4  1  0  0  0  0
  5  7  1  0  0  0  0
  6  5  2  0  0  0  0
  7  8  1  0  0  0  0
  8  9  1  0  0  0  0
 11  9  1  0  0  0  0
 11 10  1  0  0  0  0
 12 13  1  0  0  0  0
 13 18  1  0  0  0  0
 14 13  2  0  0  0  0
 14 15  1  0  0  0  0
 15 16  2  0  0  0  0
 16 17  1  0  0  0  0
 16 19  1  0  0  0  0
 17 21  1  0  0  0  0
 18 17  2  0  0  0  0
 20 19  1  0  0  0  0
 21 22  1  0  0  0  0
M  END
>  <MODEL>
6

>  <REMARK>
 VINA RESULT:    -5.785      8.333     10.936
 INTER + INTRA:         -10.360
 INTER:                  -9.475
 INTRA:                  -0.885
 UNBOUND:                -1.024
  Name = CHEMBL2071439
  13 active torsions:
  status: ('A' for Active; 'I' for Inactive)
    1  A    between atoms: C_1  and  C_2
    2  A    between atoms: C_2  and  C_3
    3  A    between atoms: C_3  and  C_4
    4  A    between atoms: C_4  and  C_5
    5  A    between atoms: C_5  and  C_6
    6  A    between atoms: C_6  and  C_8
    7  A    between atoms: C_8  and  C_9
    8  A    between atoms: C_9  and  C_11
    9  A    between atoms: C_11  and  C_12
   10  A    between atoms: C_12  and  C_13
   11  A    between atoms: C_16  and  O_17
   12  A    between atoms: C_18  and  O_19
   13  A    between atoms: O_19  and  C_20
                            x       y       z     vdW  Elec       q    Type
                         _______ _______ _______ _____ _____    ______ ____

>  <TORSDO>
F 11

>  <SCORE>
-5.785

>  <RMSD_LB>
8.333

>  <RMSD_UB>
10.936

$$$$
CHEMBL2071439
 OpenBabel10162523383D

 22 22  0  0  0  0  0  0  0  0999 V2000
  138.8790  138.8500  154.1870 C   0  0  0  0  0  2  0  0  0  0  0  0
  137.8050  138.3910  155.1570 C   0  0  0  0  0  0  0  0  0  0  0  0
  136.9260  139.1580  155.5450 O   0  0  0  0  0  0  0  0  0  0  0  0
  137.8320  136.9430  155.5650 C   0  0  0  0  0  2  0  0  0  0  0  0
  136.6760  136.1450  155.0350 C   0  0  0  0  0  0  0  0  0  0  0  0
  135.9890  135.4520  155.7860 O   0  0  0  0  0  0  0  0  0  0  0  0
  136.4370  136.1650  153.5400 C   0  0  0  0  0  2  0  0  0  0  0  0
  135.7690  134.8600  153.1250 C   0  0  0  0  0  2  0  0  0  0  0  0
  134.8840  135.0180  151.8910 C   0  0  0  0  0  2  0  0  0  0  0  0
  133.9120  133.2770  150.3500 C   0  0  0  0  0  1  0  0  0  0  0  0
  133.9370  133.8240  151.7660 C   0  0  0  0  0  2  0  0  0  0  0  0
  140.2380  138.2910  154.6080 C   0  0  0  0  0  2  0  0  0  0  0  0
  141.1220  137.9130  153.4490 C   0  0  0  0  0  0  0  0  0  0  0  0
  140.5610  137.6350  152.2020 C   0  0  0  0  0  3  0  0  0  0  0  0
  141.3760  137.2750  151.1270 C   0  0  0  0  0  3  0  0  0  0  0  0
  142.7630  137.1960  151.2880 C   0  0  0  0  0  0  0  0  0  0  0  0
  143.3460  137.4600  152.5330 C   0  0  0  0  0  0  0  0  0  0  0  0
  142.5110  137.8140  153.6040 C   0  0  0  0  0  3  0  0  0  0  0  0
  143.5180  136.8550  150.1990 O   0  0  0  0  0  0  0  0  0  0  0  0
  144.0500  136.0840  150.2200 H   0  0  0  0  0  0  0  0  0  0  0  0
  144.6690  137.4250  152.8810 O   0  0  0  0  0  0  0  0  0  0  0  0
  145.0800  138.1680  154.0190 C   0  0  0  0  0  1  0  0  0  0  0  0
  1 12  1  0  0  0  0
  1  2  1  0  0  0  0
  2  3  2  0  0  0  0
  2  4  1  0  0  0  0
  5  4  1  0  0  0  0
  5  6  2  0  0  0  0
  7  5  1  0  0  0  0
  8  7  1  0  0  0  0
  9  8  1  0  0  0  0
 10 11  1  0  0  0  0
 11  9  1  0  0  0  0
 13 18  1  0  0  0  0
 13 12  1  0  0  0  0
 14 13  2  0  0  0  0
 15 16  2  0  0  0  0
 15 14  1  0  0  0  0
 16 17  1  0  0  0  0
 17 21  1  0  0  0  0
 17 18  2  0  0  0  0
 19 20  1  0  0  0  0
 19 16  1  0  0  0  0
 21 22  1  0  0  0  0
M  END
>  <MODEL>
7

>  <REMARK>
 VINA RESULT:    -5.764      4.736      8.169
 INTER + INTRA:         -10.327
 INTER:                  -9.554
 INTRA:                  -0.772
 UNBOUND:                -1.024
  Name = CHEMBL2071439
  13 active torsions:
  status: ('A' for Active; 'I' for Inactive)
    1  A    between atoms: C_1  and  C_2
    2  A    between atoms: C_2  and  C_3
    3  A    between atoms: C_3  and  C_4
    4  A    between atoms: C_4  and  C_5
    5  A    between atoms: C_5  and  C_6
    6  A    between atoms: C_6  and  C_8
    7  A    between atoms: C_8  and  C_9
    8  A    between atoms: C_9  and  C_11
    9  A    between atoms: C_11  and  C_12
   10  A    between atoms: C_12  and  C_13
   11  A    between atoms: C_16  and  O_17
   12  A    between atoms: C_18  and  O_19
   13  A    between atoms: O_19  and  C_20
                            x       y       z     vdW  Elec       q    Type
                         _______ _______ _______ _____ _____    ______ ____

>  <TORSDO>
F 11

>  <SCORE>
-5.764

>  <RMSD_LB>
4.736

>  <RMSD_UB>
8.169

$$$$
CHEMBL2071439
 OpenBabel10162523383D

 22 22  0  0  0  0  0  0  0  0999 V2000
  145.2920  137.3420  150.7670 C   0  0  0  0  0  2  0  0  0  0  0  0
  145.9200  138.2060  149.6890 C   0  0  0  0  0  0  0  0  0  0  0  0
  147.1150  138.1180  149.4150 O   0  0  0  0  0  0  0  0  0  0  0  0
  144.9990  139.1240  148.9320 C   0  0  0  0  0  2  0  0  0  0  0  0
  144.5030  140.2860  149.7450 C   0  0  0  0  0  0  0  0  0  0  0  0
  143.3080  140.4000  150.0210 O   0  0  0  0  0  0  0  0  0  0  0  0
  145.5110  141.3430  150.1430 C   0  0  0  0  0  2  0  0  0  0  0  0
  145.2560  141.7540  151.5890 C   0  0  0  0  0  2  0  0  0  0  0  0
  146.5220  142.2340  152.2950 C   0  0  0  0  0  2  0  0  0  0  0  0
  148.3680  140.5260  152.4480 C   0  0  0  0  0  1  0  0  0  0  0  0
  147.7590  141.6420  151.6180 C   0  0  0  0  0  2  0  0  0  0  0  0
  145.8780  137.6980  152.1320 C   0  0  0  0  0  2  0  0  0  0  0  0
  144.9010  138.3820  153.0510 C   0  0  0  0  0  0  0  0  0  0  0  0
  145.3610  139.0790  154.1690 C   0  0  0  0  0  3  0  0  0  0  0  0
  144.4580  139.7070  155.0290 C   0  0  0  0  0  3  0  0  0  0  0  0
  143.0830  139.6500  154.7740 C   0  0  0  0  0  0  0  0  0  0  0  0
  142.5990  138.9480  153.6650 C   0  0  0  0  0  0  0  0  0  0  0  0
  143.5200  138.3160  152.8150 C   0  0  0  0  0  3  0  0  0  0  0  0
  142.2430  140.2970  155.6390 O   0  0  0  0  0  0  0  0  0  0  0  0
  142.2760  141.2300  155.7130 H   0  0  0  0  0  0  0  0  0  0  0  0
  141.3020  138.7750  153.2620 O   0  0  0  0  0  0  0  0  0  0  0  0
  141.0280  137.7570  152.3110 C   0  0  0  0  0  1  0  0  0  0  0  0
  1 12  1  0  0  0  0
  2  1  1  0  0  0  0
  3  2  2  0  0  0  0
  4  2  1  0  0  0  0
  4  5  1  0  0  0  0
  5  6  2  0  0  0  0
  5  7  1  0  0  0  0
  7  8  1  0  0  0  0
  8  9  1  0  0  0  0
 11  9  1  0  0  0  0
 11 10  1  0  0  0  0
 12 13  1  0  0  0  0
 13 14  1  0  0  0  0
 14 15  2  0  0  0  0
 16 15  1  0  0  0  0
 16 19  1  0  0  0  0
 17 16  2  0  0  0  0
 18 13  2  0  0  0  0
 18 17  1  0  0  0  0
 19 20  1  0  0  0  0
 21 17  1  0  0  0  0
 22 21  1  0  0  0  0
M  END
>  <MODEL>
8

>  <REMARK>
 VINA RESULT:    -5.641      9.344     12.375
 INTER + INTRA:         -10.127
 INTER:                  -7.926
 INTRA:                  -2.202
 UNBOUND:                -1.024
  Name = CHEMBL2071439
  13 active torsions:
  status: ('A' for Active; 'I' for Inactive)
    1  A    between atoms: C_1  and  C_2
    2  A    between atoms: C_2  and  C_3
    3  A    between atoms: C_3  and  C_4
    4  A    between atoms: C_4  and  C_5
    5  A    between atoms: C_5  and  C_6
    6  A    between atoms: C_6  and  C_8
    7  A    between atoms: C_8  and  C_9
    8  A    between atoms: C_9  and  C_11
    9  A    between atoms: C_11  and  C_12
   10  A    between atoms: C_12  and  C_13
   11  A    between atoms: C_16  and  O_17
   12  A    between atoms: C_18  and  O_19
   13  A    between atoms: O_19  and  C_20
                            x       y       z     vdW  Elec       q    Type
                         _______ _______ _______ _____ _____    ______ ____

>  <TORSDO>
F 11

>  <SCORE>
-5.641

>  <RMSD_LB>
9.344

>  <RMSD_UB>
12.375

$$$$
CHEMBL2071439
 OpenBabel10162523383D

 22 22  0  0  0  0  0  0  0  0999 V2000
  143.2800  136.9830  151.1170 C   0  0  0  0  0  2  0  0  0  0  0  0
  144.2460  137.8900  150.3760 C   0  0  0  0  0  0  0  0  0  0  0  0
  144.4950  137.7200  149.1850 O   0  0  0  0  0  0  0  0  0  0  0  0
  144.8290  139.0390  151.1530 C   0  0  0  0  0  2  0  0  0  0  0  0
  144.2360  140.3710  150.7960 C   0  0  0  0  0  0  0  0  0  0  0  0
  143.0500  140.4700  150.4770 O   0  0  0  0  0  0  0  0  0  0  0  0
  145.1630  141.5670  150.7670 C   0  0  0  0  0  2  0  0  0  0  0  0
  146.5970  141.0910  150.9720 C   0  0  0  0  0  2  0  0  0  0  0  0
  147.3680  141.9560  151.9650 C   0  0  0  0  0  2  0  0  0  0  0  0
  148.5540  141.9140  154.1880 C   0  0  0  0  0  1  0  0  0  0  0  0
  147.5850  141.1900  153.2720 C   0  0  0  0  0  2  0  0  0  0  0  0
  143.2000  137.3910  152.5870 C   0  0  0  0  0  2  0  0  0  0  0  0
  141.8410  137.8830  153.0060 C   0  0  0  0  0  0  0  0  0  0  0  0
  141.6140  138.2770  154.3250 C   0  0  0  0  0  3  0  0  0  0  0  0
  140.3530  138.7250  154.7210 C   0  0  0  0  0  3  0  0  0  0  0  0
  139.3050  138.7920  153.7970 C   0  0  0  0  0  0  0  0  0  0  0  0
  139.5070  138.3920  152.4710 C   0  0  0  0  0  0  0  0  0  0  0  0
  140.7790  137.9370  152.0920 C   0  0  0  0  0  3  0  0  0  0  0  0
  138.0930  139.2550  154.2320 O   0  0  0  0  0  0  0  0  0  0  0  0
  137.4230  139.4660  153.6120 H   0  0  0  0  0  0  0  0  0  0  0  0
  138.6100  138.3780  151.4370 O   0  0  0  0  0  0  0  0  0  0  0  0
  138.4500  137.1700  150.7080 C   0  0  0  0  0  1  0  0  0  0  0  0
  1 12  1  0  0  0  0
  2  1  1  0  0  0  0
  2  4  1  0  0  0  0
  3  2  2  0  0  0  0
  5  4  1  0  0  0  0
  6  5  2  0  0  0  0
  7  5  1  0  0  0  0
  7  8  1  0  0  0  0
  8  9  1  0  0  0  0
  9 11  1  0  0  0  0
 11 10  1  0  0  0  0
 12 13  1  0  0  0  0
 13 14  1  0  0  0  0
 14 15  2  0  0  0  0
 16 19  1  0  0  0  0
 16 15  1  0  0  0  0
 17 16  2  0  0  0  0
 18 17  1  0  0  0  0
 18 13  2  0  0  0  0
 20 19  1  0  0  0  0
 21 17  1  0  0  0  0
 22 21  1  0  0  0  0
M  END
>  <MODEL>
9

>  <REMARK>
 VINA RESULT:    -5.500      8.093     10.597
 INTER + INTRA:          -9.900
 INTER:                  -8.876
 INTRA:                  -1.024
 UNBOUND:                -1.024
  Name = CHEMBL2071439
  13 active torsions:
  status: ('A' for Active; 'I' for Inactive)
    1  A    between atoms: C_1  and  C_2
    2  A    between atoms: C_2  and  C_3
    3  A    between atoms: C_3  and  C_4
    4  A    between atoms: C_4  and  C_5
    5  A    between atoms: C_5  and  C_6
    6  A    between atoms: C_6  and  C_8
    7  A    between atoms: C_8  and  C_9
    8  A    between atoms: C_9  and  C_11
    9  A    between atoms: C_11  and  C_12
   10  A    between atoms: C_12  and  C_13
   11  A    between atoms: C_16  and  O_17
   12  A    between atoms: C_18  and  O_19
   13  A    between atoms: O_19  and  C_20
                            x       y       z     vdW  Elec       q    Type
                         _______ _______ _______ _____ _____    ______ ____

>  <TORSDO>
F 11

>  <SCORE>
-5.500

>  <RMSD_LB>
8.093

>  <RMSD_UB>
10.597

$$$$
