CHEMBL146284
 OpenBabel10172500373D

 28 30  0  0  0  0  0  0  0  0999 V2000
  133.1860  134.4110  152.3840 N   0  0  0  0  0  0  0  0  0  0  0  0
  133.8400  135.1430  153.3580 C   0  0  0  0  0  0  0  0  0  0  0  0
  133.9660  136.3590  153.3020 O   0  0  0  0  0  0  0  0  0  0  0  0
  133.0340  133.4470  152.5130 H   0  0  0  0  0  0  0  0  0  0  0  0
  134.4130  134.3030  154.5280 C   0  0  0  0  0  0  0  0  0  0  0  0
  134.3050  133.0800  154.4220 O   0  0  0  0  0  0  0  0  0  0  0  0
  135.0450  134.9350  155.6920 C   0  0  0  0  0  0  0  0  0  0  0  0
  134.6720  134.7680  157.0150 C   0  0  0  0  0  3  0  0  0  0  0  0
  135.5000  135.5050  157.8130 N   0  0  0  0  0  0  0  0  0  0  0  0
  136.4220  136.1710  157.0470 C   0  0  0  0  0  0  0  0  0  0  0  0
  137.4520  137.0290  157.4450 C   0  0  0  0  0  3  0  0  0  0  0  0
  138.2550  137.5810  156.4460 C   0  0  0  0  0  3  0  0  0  0  0  0
  138.0240  137.2840  155.1060 C   0  0  0  0  0  0  0  0  0  0  0  0
  139.0360  137.9870  153.9020 Cl  0  0  0  0  0  0  0  0  0  0  0  0
  136.9890  136.4220  154.7200 C   0  0  0  0  0  3  0  0  0  0  0  0
  136.1640  135.8450  155.7110 C   0  0  0  0  0  0  0  0  0  0  0  0
  135.4440  135.5500  158.7950 H   0  0  0  0  0  0  0  0  0  0  0  0
  132.7250  135.0570  151.1810 C   0  0  0  0  0  2  0  0  0  0  0  0
  135.3170  134.5700  148.4250 C   0  0  0  0  0  0  0  0  0  0  0  0
  134.6910  135.0040  149.5990 C   0  0  0  0  0  3  0  0  0  0  0  0
  133.4130  134.5360  149.9500 C   0  0  0  0  0  0  0  0  0  0  0  0
  132.7600  133.6300  149.1030 C   0  0  0  0  0  3  0  0  0  0  0  0
  133.3730  133.1910  147.9300 C   0  0  0  0  0  3  0  0  0  0  0  0
  134.6430  133.6610  147.5990 C   0  0  0  0  0  0  0  0  0  0  0  0
  137.6570  134.7100  148.8620 C   0  0  0  0  0  1  0  0  0  0  0  0
  136.5570  134.9740  148.0050 O   0  0  0  0  0  0  0  0  0  0  0  0
  135.2430  133.2370  146.4420 O   0  0  0  0  0  0  0  0  0  0  0  0
  135.2700  132.3240  146.2360 H   0  0  0  0  0  0  0  0  0  0  0  0
  1  4  1  0  0  0  0
  1  2  1  0  0  0  0
  2  5  1  0  0  0  0
  3  2  2  0  0  0  0
  5  7  1  0  0  0  0
  6  5  2  0  0  0  0
  7 16  1  0  0  0  0
  7  8  2  0  0  0  0
  8  9  1  0  0  0  0
  9 17  1  0  0  0  0
 10 11  1  0  0  0  0
 10  9  1  0  0  0  0
 12 11  2  0  0  0  0
 13 12  1  0  0  0  0
 14 13  1  0  0  0  0
 15 13  2  0  0  0  0
 15 16  1  0  0  0  0
 16 10  2  0  0  0  0
 18  1  1  0  0  0  0
 19 20  1  0  0  0  0
 20 21  2  0  0  0  0
 21 18  1  0  0  0  0
 22 21  1  0  0  0  0
 23 22  2  0  0  0  0
 24 23  1  0  0  0  0
 24 19  2  0  0  0  0
 26 19  1  0  0  0  0
 26 25  1  0  0  0  0
 27 24  1  0  0  0  0
 28 27  1  0  0  0  0
M  END
>  <MODEL>
1

>  <REMARK>
 VINA RESULT:    -8.118      0.000      0.000
 INTER + INTRA:         -11.375
 INTER:                 -10.830
 INTRA:                  -0.546
 UNBOUND:                -0.647
  Name = CHEMBL146284
  7 active torsions:
  status: ('A' for Active; 'I' for Inactive)
    1  A    between atoms: C_1  and  O_2
    2  A    between atoms: O_2  and  C_3
    3  A    between atoms: C_5  and  C_6
    4  A    between atoms: C_6  and  N_7
    5  A    between atoms: C_8  and  C_10
    6  A    between atoms: C_10  and  C_12
    7  A    between atoms: C_24  and  O_25
                            x       y       z     vdW  Elec       q    Type
                         _______ _______ _______ _____ _____    ______ ____

>  <TORSDO>
F 6

>  <SCORE>
-8.118

>  <RMSD_LB>
0.000

>  <RMSD_UB>
0.000

$$$$
CHEMBL146284
 OpenBabel10172500373D

 28 30  0  0  0  0  0  0  0  0999 V2000
  137.4820  136.7940  155.6710 N   0  0  0  0  0  0  0  0  0  0  0  0
  137.7260  137.3550  154.4310 C   0  0  0  0  0  0  0  0  0  0  0  0
  137.1970  136.9510  153.4040 O   0  0  0  0  0  0  0  0  0  0  0  0
  137.8620  137.2060  156.4800 H   0  0  0  0  0  0  0  0  0  0  0  0
  138.7320  138.5340  154.4380 C   0  0  0  0  0  0  0  0  0  0  0  0
  138.2470  139.6610  154.5600 O   0  0  0  0  0  0  0  0  0  0  0  0
  140.1770  138.3130  154.3040 C   0  0  0  0  0  0  0  0  0  0  0  0
  141.1250  138.4860  155.3000 C   0  0  0  0  0  3  0  0  0  0  0  0
  142.3590  138.1720  154.8050 N   0  0  0  0  0  0  0  0  0  0  0  0
  142.2570  137.7960  153.4890 C   0  0  0  0  0  0  0  0  0  0  0  0
  143.2600  137.3940  152.6020 C   0  0  0  0  0  3  0  0  0  0  0  0
  142.8770  137.0630  151.3020 C   0  0  0  0  0  3  0  0  0  0  0  0
  141.5420  137.1390  150.9150 C   0  0  0  0  0  0  0  0  0  0  0  0
  141.1100  136.7230  149.3000 Cl  0  0  0  0  0  0  0  0  0  0  0  0
  140.5470  137.5430  151.8140 C   0  0  0  0  0  3  0  0  0  0  0  0
  140.9050  137.8790  153.1380 C   0  0  0  0  0  0  0  0  0  0  0  0
  143.1980  138.2090  155.3180 H   0  0  0  0  0  0  0  0  0  0  0  0
  136.6690  135.6080  155.7810 C   0  0  0  0  0  2  0  0  0  0  0  0
  135.4540  136.3420  159.3220 C   0  0  0  0  0  0  0  0  0  0  0  0
  136.1970  136.3830  158.1370 C   0  0  0  0  0  3  0  0  0  0  0  0
  135.8280  135.6030  157.0280 C   0  0  0  0  0  0  0  0  0  0  0  0
  134.7040  134.7700  157.1210 C   0  0  0  0  0  3  0  0  0  0  0  0
  133.9570  134.7190  158.2970 C   0  0  0  0  0  3  0  0  0  0  0  0
  134.3340  135.5030  159.3870 C   0  0  0  0  0  0  0  0  0  0  0  0
  136.7490  138.0600  160.3520 C   0  0  0  0  0  1  0  0  0  0  0  0
  135.7410  137.0640  160.4510 O   0  0  0  0  0  0  0  0  0  0  0  0
  133.6060  135.4480  160.5450 O   0  0  0  0  0  0  0  0  0  0  0  0
  133.6840  136.1300  161.1820 H   0  0  0  0  0  0  0  0  0  0  0  0
  1 18  1  0  0  0  0
  1  4  1  0  0  0  0
  2  5  1  0  0  0  0
  2  1  1  0  0  0  0
  3  2  2  0  0  0  0
  5  6  2  0  0  0  0
  7  5  1  0  0  0  0
  7  8  2  0  0  0  0
  9  8  1  0  0  0  0
  9 17  1  0  0  0  0
 10  9  1  0  0  0  0
 11 10  2  0  0  0  0
 12 11  1  0  0  0  0
 13 12  2  0  0  0  0
 13 15  1  0  0  0  0
 14 13  1  0  0  0  0
 15 16  2  0  0  0  0
 16 10  1  0  0  0  0
 16  7  1  0  0  0  0
 18 21  1  0  0  0  0
 19 24  1  0  0  0  0
 19 26  1  0  0  0  0
 20 19  2  0  0  0  0
 21 22  2  0  0  0  0
 21 20  1  0  0  0  0
 22 23  1  0  0  0  0
 23 24  2  0  0  0  0
 24 27  1  0  0  0  0
 25 26  1  0  0  0  0
 27 28  1  0  0  0  0
M  END
>  <MODEL>
2

>  <REMARK>
 VINA RESULT:    -8.072      5.074      8.286
 INTER + INTRA:         -11.315
 INTER:                 -10.697
 INTRA:                  -0.618
 UNBOUND:                -0.647
  Name = CHEMBL146284
  7 active torsions:
  status: ('A' for Active; 'I' for Inactive)
    1  A    between atoms: C_1  and  O_2
    2  A    between atoms: O_2  and  C_3
    3  A    between atoms: C_5  and  C_6
    4  A    between atoms: C_6  and  N_7
    5  A    between atoms: C_8  and  C_10
    6  A    between atoms: C_10  and  C_12
    7  A    between atoms: C_24  and  O_25
                            x       y       z     vdW  Elec       q    Type
                         _______ _______ _______ _____ _____    ______ ____

>  <TORSDO>
F 6

>  <SCORE>
-8.072

>  <RMSD_LB>
5.074

>  <RMSD_UB>
8.286

$$$$
CHEMBL146284
 OpenBabel10172500373D

 28 30  0  0  0  0  0  0  0  0999 V2000
  136.4570  136.1360  154.2890 N   0  0  0  0  0  0  0  0  0  0  0  0
  136.6780  136.7260  155.5190 C   0  0  0  0  0  0  0  0  0  0  0  0
  136.2250  136.2750  156.5630 O   0  0  0  0  0  0  0  0  0  0  0  0
  136.9110  136.4830  153.4880 H   0  0  0  0  0  0  0  0  0  0  0  0
  137.5410  138.0130  155.4770 C   0  0  0  0  0  0  0  0  0  0  0  0
  136.9340  139.0780  155.6020 O   0  0  0  0  0  0  0  0  0  0  0  0
  138.9970  137.9570  155.2950 C   0  0  0  0  0  0  0  0  0  0  0  0
  139.9450  137.9390  156.3050 C   0  0  0  0  0  3  0  0  0  0  0  0
  141.1920  137.8720  155.7490 N   0  0  0  0  0  0  0  0  0  0  0  0
  141.0970  137.8510  154.3810 C   0  0  0  0  0  0  0  0  0  0  0  0
  142.1130  137.7840  153.4230 C   0  0  0  0  0  3  0  0  0  0  0  0
  141.7360  137.7790  152.0800 C   0  0  0  0  0  3  0  0  0  0  0  0
  140.3920  137.8430  151.7220 C   0  0  0  0  0  0  0  0  0  0  0  0
  139.9660  137.8350  150.0530 Cl  0  0  0  0  0  0  0  0  0  0  0  0
  139.3830  137.9090  152.6910 C   0  0  0  0  0  3  0  0  0  0  0  0
  139.7370  137.9110  154.0590 C   0  0  0  0  0  0  0  0  0  0  0  0
  142.0340  137.8430  156.2580 H   0  0  0  0  0  0  0  0  0  0  0  0
  135.5620  135.0100  154.1770 C   0  0  0  0  0  2  0  0  0  0  0  0
  135.9800  134.6850  150.3990 C   0  0  0  0  0  0  0  0  0  0  0  0
  136.2180  135.0090  151.7390 C   0  0  0  0  0  3  0  0  0  0  0  0
  135.3280  134.6030  152.7480 C   0  0  0  0  0  0  0  0  0  0  0  0
  134.1850  133.8710  152.3980 C   0  0  0  0  0  3  0  0  0  0  0  0
  133.9360  133.5440  151.0660 C   0  0  0  0  0  3  0  0  0  0  0  0
  134.8310  133.9510  150.0770 C   0  0  0  0  0  0  0  0  0  0  0  0
  136.8020  136.4080  148.9700 C   0  0  0  0  0  1  0  0  0  0  0  0
  136.7900  135.0410  149.3520 O   0  0  0  0  0  0  0  0  0  0  0  0
  134.5830  133.6360  148.7670 O   0  0  0  0  0  0  0  0  0  0  0  0
  133.7080  133.4600  148.4860 H   0  0  0  0  0  0  0  0  0  0  0  0
  1  2  1  0  0  0  0
  2  3  2  0  0  0  0
  4  1  1  0  0  0  0
  5  2  1  0  0  0  0
  5  6  2  0  0  0  0
  7  5  1  0  0  0  0
  7  8  2  0  0  0  0
  9 17  1  0  0  0  0
  9  8  1  0  0  0  0
 10  9  1  0  0  0  0
 11 10  2  0  0  0  0
 12 11  1  0  0  0  0
 13 12  2  0  0  0  0
 13 15  1  0  0  0  0
 14 13  1  0  0  0  0
 15 16  2  0  0  0  0
 16 10  1  0  0  0  0
 16  7  1  0  0  0  0
 18  1  1  0  0  0  0
 19 20  1  0  0  0  0
 20 21  2  0  0  0  0
 21 18  1  0  0  0  0
 22 21  1  0  0  0  0
 23 22  2  0  0  0  0
 24 19  2  0  0  0  0
 24 23  1  0  0  0  0
 25 26  1  0  0  0  0
 26 19  1  0  0  0  0
 27 24  1  0  0  0  0
 28 27  1  0  0  0  0
M  END
>  <MODEL>
3

>  <REMARK>
 VINA RESULT:    -7.787      3.036      4.334
 INTER + INTRA:         -10.938
 INTER:                 -10.059
 INTRA:                  -0.879
 UNBOUND:                -0.647
  Name = CHEMBL146284
  7 active torsions:
  status: ('A' for Active; 'I' for Inactive)
    1  A    between atoms: C_1  and  O_2
    2  A    between atoms: O_2  and  C_3
    3  A    between atoms: C_5  and  C_6
    4  A    between atoms: C_6  and  N_7
    5  A    between atoms: C_8  and  C_10
    6  A    between atoms: C_10  and  C_12
    7  A    between atoms: C_24  and  O_25
                            x       y       z     vdW  Elec       q    Type
                         _______ _______ _______ _____ _____    ______ ____

>  <TORSDO>
F 6

>  <SCORE>
-7.787

>  <RMSD_LB>
3.036

>  <RMSD_UB>
4.334

$$$$
CHEMBL146284
 OpenBabel10172500373D

 28 30  0  0  0  0  0  0  0  0999 V2000
  144.4720  140.3720  153.8460 N   0  0  0  0  0  0  0  0  0  0  0  0
  144.0580  139.1370  154.3100 C   0  0  0  0  0  0  0  0  0  0  0  0
  144.8300  138.2060  154.4950 O   0  0  0  0  0  0  0  0  0  0  0  0
  143.8310  141.1170  153.7940 H   0  0  0  0  0  0  0  0  0  0  0  0
  142.5350  139.0170  154.5700 C   0  0  0  0  0  0  0  0  0  0  0  0
  142.1510  139.3340  155.6970 O   0  0  0  0  0  0  0  0  0  0  0  0
  141.6110  138.5500  153.5290 C   0  0  0  0  0  0  0  0  0  0  0  0
  140.2350  138.7060  153.5300 C   0  0  0  0  0  3  0  0  0  0  0  0
  139.7190  138.1550  152.3910 N   0  0  0  0  0  0  0  0  0  0  0  0
  140.7270  137.6250  151.6260 C   0  0  0  0  0  0  0  0  0  0  0  0
  140.6540  136.9740  150.3910 C   0  0  0  0  0  3  0  0  0  0  0  0
  141.8490  136.5260  149.8260 C   0  0  0  0  0  3  0  0  0  0  0  0
  143.0610  136.7250  150.4800 C   0  0  0  0  0  0  0  0  0  0  0  0
  144.5140  136.1570  149.7500 Cl  0  0  0  0  0  0  0  0  0  0  0  0
  143.1210  137.3800  151.7170 C   0  0  0  0  0  3  0  0  0  0  0  0
  141.9270  137.8480  152.3110 C   0  0  0  0  0  0  0  0  0  0  0  0
  138.7640  138.1410  152.1540 H   0  0  0  0  0  0  0  0  0  0  0  0
  145.8410  140.5720  153.4400 C   0  0  0  0  0  2  0  0  0  0  0  0
  145.7060  140.4520  149.6300 C   0  0  0  0  0  0  0  0  0  0  0  0
  145.5480  140.1060  150.9770 C   0  0  0  0  0  3  0  0  0  0  0  0
  145.9580  140.9800  151.9980 C   0  0  0  0  0  0  0  0  0  0  0  0
  146.5390  142.2090  151.6550 C   0  0  0  0  0  3  0  0  0  0  0  0
  146.7030  142.5640  150.3170 C   0  0  0  0  0  3  0  0  0  0  0  0
  146.2870  141.6870  149.3150 C   0  0  0  0  0  0  0  0  0  0  0  0
  143.9670  139.6520  148.2090 C   0  0  0  0  0  1  0  0  0  0  0  0
  145.3390  139.6630  148.5720 O   0  0  0  0  0  0  0  0  0  0  0  0
  146.4550  142.0320  148.0000 O   0  0  0  0  0  0  0  0  0  0  0  0
  146.3980  141.3770  147.3330 H   0  0  0  0  0  0  0  0  0  0  0  0
  1  2  1  0  0  0  0
  2  3  2  0  0  0  0
  2  5  1  0  0  0  0
  4  1  1  0  0  0  0
  5  6  2  0  0  0  0
  7  8  2  0  0  0  0
  7  5  1  0  0  0  0
  9  8  1  0  0  0  0
 10 16  1  0  0  0  0
 10  9  1  0  0  0  0
 11 10  2  0  0  0  0
 12 11  1  0  0  0  0
 12 13  2  0  0  0  0
 13 15  1  0  0  0  0
 14 13  1  0  0  0  0
 15 16  2  0  0  0  0
 16  7  1  0  0  0  0
 17  9  1  0  0  0  0
 18  1  1  0  0  0  0
 19 20  1  0  0  0  0
 20 21  2  0  0  0  0
 21 18  1  0  0  0  0
 22 21  1  0  0  0  0
 23 22  2  0  0  0  0
 24 19  2  0  0  0  0
 24 23  1  0  0  0  0
 25 26  1  0  0  0  0
 26 19  1  0  0  0  0
 27 24  1  0  0  0  0
 28 27  1  0  0  0  0
M  END
>  <MODEL>
4

>  <REMARK>
 VINA RESULT:    -7.614      8.200     10.862
 INTER + INTRA:         -10.710
 INTER:                  -9.778
 INTRA:                  -0.932
 UNBOUND:                -0.647
  Name = CHEMBL146284
  7 active torsions:
  status: ('A' for Active; 'I' for Inactive)
    1  A    between atoms: C_1  and  O_2
    2  A    between atoms: O_2  and  C_3
    3  A    between atoms: C_5  and  C_6
    4  A    between atoms: C_6  and  N_7
    5  A    between atoms: C_8  and  C_10
    6  A    between atoms: C_10  and  C_12
    7  A    between atoms: C_24  and  O_25
                            x       y       z     vdW  Elec       q    Type
                         _______ _______ _______ _____ _____    ______ ____

>  <TORSDO>
F 6

>  <SCORE>
-7.614

>  <RMSD_LB>
8.200

>  <RMSD_UB>
10.862

$$$$
CHEMBL146284
 OpenBabel10172500373D

 28 30  0  0  0  0  0  0  0  0999 V2000
  144.1350  137.3690  149.7630 N   0  0  0  0  0  0  0  0  0  0  0  0
  145.4520  136.9470  149.7410 C   0  0  0  0  0  0  0  0  0  0  0  0
  145.8200  135.8940  150.2440 O   0  0  0  0  0  0  0  0  0  0  0  0
  143.8700  138.1790  149.2720 H   0  0  0  0  0  0  0  0  0  0  0  0
  146.4330  137.9170  149.0350 C   0  0  0  0  0  0  0  0  0  0  0  0
  147.3490  137.3940  148.3970 O   0  0  0  0  0  0  0  0  0  0  0  0
  146.2750  139.3740  149.1290 C   0  0  0  0  0  0  0  0  0  0  0  0
  146.0500  140.2400  148.0710 C   0  0  0  0  0  3  0  0  0  0  0  0
  145.9450  141.5150  148.5500 N   0  0  0  0  0  0  0  0  0  0  0  0
  146.1020  141.5220  149.9120 C   0  0  0  0  0  0  0  0  0  0  0  0
  146.0680  142.5980  150.8040 C   0  0  0  0  0  3  0  0  0  0  0  0
  146.2620  142.3220  152.1570 C   0  0  0  0  0  3  0  0  0  0  0  0
  146.4850  141.0180  152.5900 C   0  0  0  0  0  0  0  0  0  0  0  0
  146.7220  140.7180  154.2700 Cl  0  0  0  0  0  0  0  0  0  0  0  0
  146.5170  139.9480  151.6870 C   0  0  0  0  0  3  0  0  0  0  0  0
  146.3190  140.1970  150.3100 C   0  0  0  0  0  0  0  0  0  0  0  0
  145.7800  142.3130  147.9960 H   0  0  0  0  0  0  0  0  0  0  0  0
  143.1490  136.6220  150.5040 C   0  0  0  0  0  2  0  0  0  0  0  0
  140.7360  138.1070  153.0580 C   0  0  0  0  0  0  0  0  0  0  0  0
  141.2490  137.3550  151.9960 C   0  0  0  0  0  3  0  0  0  0  0  0
  142.6190  137.3860  151.6860 C   0  0  0  0  0  0  0  0  0  0  0  0
  143.4760  138.1890  152.4520 C   0  0  0  0  0  3  0  0  0  0  0  0
  142.9770  138.9440  153.5120 C   0  0  0  0  0  3  0  0  0  0  0  0
  141.6150  138.8990  153.8090 C   0  0  0  0  0  0  0  0  0  0  0  0
  138.4560  137.7510  152.4600 C   0  0  0  0  0  1  0  0  0  0  0  0
  139.4180  138.1400  153.4290 O   0  0  0  0  0  0  0  0  0  0  0  0
  141.1230  139.6470  154.8450 O   0  0  0  0  0  0  0  0  0  0  0  0
  140.5460  140.3650  154.6730 H   0  0  0  0  0  0  0  0  0  0  0  0
  1 18  1  0  0  0  0
  2  1  1  0  0  0  0
  2  3  2  0  0  0  0
  4  1  1  0  0  0  0
  5  7  1  0  0  0  0
  5  2  1  0  0  0  0
  6  5  2  0  0  0  0
  7 16  1  0  0  0  0
  8  9  1  0  0  0  0
  8  7  2  0  0  0  0
  9 10  1  0  0  0  0
 10 16  2  0  0  0  0
 10 11  1  0  0  0  0
 11 12  2  0  0  0  0
 12 13  1  0  0  0  0
 13 14  1  0  0  0  0
 15 13  2  0  0  0  0
 16 15  1  0  0  0  0
 17  9  1  0  0  0  0
 18 21  1  0  0  0  0
 19 26  1  0  0  0  0
 19 24  1  0  0  0  0
 20 19  2  0  0  0  0
 21 20  1  0  0  0  0
 21 22  2  0  0  0  0
 22 23  1  0  0  0  0
 23 24  2  0  0  0  0
 24 27  1  0  0  0  0
 25 26  1  0  0  0  0
 28 27  1  0  0  0  0
M  END
>  <MODEL>
5

>  <REMARK>
 VINA RESULT:    -7.597      8.703     11.521
 INTER + INTRA:         -10.687
 INTER:                  -9.512
 INTRA:                  -1.175
 UNBOUND:                -0.647
  Name = CHEMBL146284
  7 active torsions:
  status: ('A' for Active; 'I' for Inactive)
    1  A    between atoms: C_1  and  O_2
    2  A    between atoms: O_2  and  C_3
    3  A    between atoms: C_5  and  C_6
    4  A    between atoms: C_6  and  N_7
    5  A    between atoms: C_8  and  C_10
    6  A    between atoms: C_10  and  C_12
    7  A    between atoms: C_24  and  O_25
                            x       y       z     vdW  Elec       q    Type
                         _______ _______ _______ _____ _____    ______ ____

>  <TORSDO>
F 6

>  <SCORE>
-7.597

>  <RMSD_LB>
8.703

>  <RMSD_UB>
11.521

$$$$
CHEMBL146284
 OpenBabel10172500373D

 28 30  0  0  0  0  0  0  0  0999 V2000
  136.4850  136.0520  151.4710 N   0  0  0  0  0  0  0  0  0  0  0  0
  137.1240  136.9030  152.3540 C   0  0  0  0  0  0  0  0  0  0  0  0
  136.8260  136.9760  153.5380 O   0  0  0  0  0  0  0  0  0  0  0  0
  136.8150  135.9630  150.5480 H   0  0  0  0  0  0  0  0  0  0  0  0
  138.2470  137.7680  151.7260 C   0  0  0  0  0  0  0  0  0  0  0  0
  138.0920  138.0830  150.5440 O   0  0  0  0  0  0  0  0  0  0  0  0
  139.4240  138.1810  152.4990 C   0  0  0  0  0  0  0  0  0  0  0  0
  139.4150  138.9530  153.6490 C   0  0  0  0  0  3  0  0  0  0  0  0
  140.6970  139.1180  154.0900 N   0  0  0  0  0  0  0  0  0  0  0  0
  141.5700  138.4740  153.2500 C   0  0  0  0  0  0  0  0  0  0  0  0
  142.9630  138.3810  153.3220 C   0  0  0  0  0  3  0  0  0  0  0  0
  143.6140  137.6570  152.3230 C   0  0  0  0  0  3  0  0  0  0  0  0
  142.8910  137.0580  151.2960 C   0  0  0  0  0  0  0  0  0  0  0  0
  143.7310  136.1730  150.0800 Cl  0  0  0  0  0  0  0  0  0  0  0  0
  141.4950  137.1580  151.2350 C   0  0  0  0  0  3  0  0  0  0  0  0
  140.8090  137.8820  152.2370 C   0  0  0  0  0  0  0  0  0  0  0  0
  140.9560  139.6250  154.8940 H   0  0  0  0  0  0  0  0  0  0  0  0
  135.3380  135.2920  151.9010 C   0  0  0  0  0  2  0  0  0  0  0  0
  133.9650  134.8690  148.3670 C   0  0  0  0  0  0  0  0  0  0  0  0
  134.7750  135.2560  149.4410 C   0  0  0  0  0  3  0  0  0  0  0  0
  134.4970  134.8200  150.7470 C   0  0  0  0  0  0  0  0  0  0  0  0
  133.3870  133.9940  150.9710 C   0  0  0  0  0  3  0  0  0  0  0  0
  132.5710  133.6030  149.9100 C   0  0  0  0  0  3  0  0  0  0  0  0
  132.8640  134.0410  148.6190 C   0  0  0  0  0  0  0  0  0  0  0  0
  135.2480  134.6600  146.3680 C   0  0  0  0  0  1  0  0  0  0  0  0
  134.1590  135.2480  147.0650 O   0  0  0  0  0  0  0  0  0  0  0  0
  132.0580  133.6640  147.5770 O   0  0  0  0  0  0  0  0  0  0  0  0
  132.1290  134.0980  146.7490 H   0  0  0  0  0  0  0  0  0  0  0  0
  1 18  1  0  0  0  0
  1  2  1  0  0  0  0
  2  3  2  0  0  0  0
  4  1  1  0  0  0  0
  5  2  1  0  0  0  0
  5  7  1  0  0  0  0
  6  5  2  0  0  0  0
  7  8  2  0  0  0  0
  8  9  1  0  0  0  0
  9 17  1  0  0  0  0
 10 11  1  0  0  0  0
 10  9  1  0  0  0  0
 12 11  2  0  0  0  0
 13 12  1  0  0  0  0
 14 13  1  0  0  0  0
 15 13  2  0  0  0  0
 15 16  1  0  0  0  0
 16  7  1  0  0  0  0
 16 10  2  0  0  0  0
 19 24  2  0  0  0  0
 19 20  1  0  0  0  0
 20 21  2  0  0  0  0
 21 22  1  0  0  0  0
 21 18  1  0  0  0  0
 23 22  2  0  0  0  0
 24 23  1  0  0  0  0
 25 26  1  0  0  0  0
 26 19  1  0  0  0  0
 27 24  1  0  0  0  0
 28 27  1  0  0  0  0
M  END
>  <MODEL>
6

>  <REMARK>
 VINA RESULT:    -7.528      3.826      4.967
 INTER + INTRA:         -10.596
 INTER:                 -10.176
 INTRA:                  -0.420
 UNBOUND:                -0.647
  Name = CHEMBL146284
  7 active torsions:
  status: ('A' for Active; 'I' for Inactive)
    1  A    between atoms: C_1  and  O_2
    2  A    between atoms: O_2  and  C_3
    3  A    between atoms: C_5  and  C_6
    4  A    between atoms: C_6  and  N_7
    5  A    between atoms: C_8  and  C_10
    6  A    between atoms: C_10  and  C_12
    7  A    between atoms: C_24  and  O_25
                            x       y       z     vdW  Elec       q    Type
                         _______ _______ _______ _____ _____    ______ ____

>  <TORSDO>
F 6

>  <SCORE>
-7.528

>  <RMSD_LB>
3.826

>  <RMSD_UB>
4.967

$$$$
CHEMBL146284
 OpenBabel10172500373D

 28 30  0  0  0  0  0  0  0  0999 V2000
  145.3160  139.3910  153.8800 N   0  0  0  0  0  0  0  0  0  0  0  0
  144.3230  139.1130  152.9590 C   0  0  0  0  0  0  0  0  0  0  0  0
  143.7160  139.9860  152.3540 O   0  0  0  0  0  0  0  0  0  0  0  0
  145.8360  138.6560  154.2790 H   0  0  0  0  0  0  0  0  0  0  0  0
  144.0290  137.6050  152.7560 C   0  0  0  0  0  0  0  0  0  0  0  0
  144.2530  136.8730  153.7210 O   0  0  0  0  0  0  0  0  0  0  0  0
  143.5150  137.0860  151.4820 C   0  0  0  0  0  0  0  0  0  0  0  0
  144.2690  136.5230  150.4660 C   0  0  0  0  0  3  0  0  0  0  0  0
  143.4400  136.1460  149.4470 N   0  0  0  0  0  0  0  0  0  0  0  0
  142.1400  136.4530  149.7590 C   0  0  0  0  0  0  0  0  0  0  0  0
  140.9760  136.2430  149.0140 C   0  0  0  0  0  3  0  0  0  0  0  0
  139.7670  136.6570  149.5740 C   0  0  0  0  0  3  0  0  0  0  0  0
  139.7370  137.2600  150.8280 C   0  0  0  0  0  0  0  0  0  0  0  0
  138.2240  137.7590  151.4850 Cl  0  0  0  0  0  0  0  0  0  0  0  0
  140.9100  137.4640  151.5650 C   0  0  0  0  0  3  0  0  0  0  0  0
  142.1480  137.0500  151.0250 C   0  0  0  0  0  0  0  0  0  0  0  0
  143.7350  135.7170  148.6110 H   0  0  0  0  0  0  0  0  0  0  0  0
  145.5920  140.7550  154.2570 C   0  0  0  0  0  2  0  0  0  0  0  0
  147.7670  142.2630  151.5100 C   0  0  0  0  0  0  0  0  0  0  0  0
  146.6550  141.7890  152.2140 C   0  0  0  0  0  3  0  0  0  0  0  0
  146.7830  141.3200  153.5330 C   0  0  0  0  0  0  0  0  0  0  0  0
  148.0460  141.3250  154.1410 C   0  0  0  0  0  3  0  0  0  0  0  0
  149.1620  141.7940  153.4500 C   0  0  0  0  0  3  0  0  0  0  0  0
  149.0170  142.2590  152.1430 C   0  0  0  0  0  0  0  0  0  0  0  0
  146.6060  142.4020  149.4320 C   0  0  0  0  0  1  0  0  0  0  0  0
  147.7360  142.7340  150.2240 O   0  0  0  0  0  0  0  0  0  0  0  0
  150.1150  142.7120  151.4600 O   0  0  0  0  0  0  0  0  0  0  0  0
  150.2070  143.6260  151.2750 H   0  0  0  0  0  0  0  0  0  0  0  0
  1 18  1  0  0  0  0
  1  4  1  0  0  0  0
  2  1  1  0  0  0  0
  3  2  2  0  0  0  0
  5  2  1  0  0  0  0
  5  6  2  0  0  0  0
  7  5  1  0  0  0  0
  8  7  2  0  0  0  0
  9 10  1  0  0  0  0
  9  8  1  0  0  0  0
 10 16  1  0  0  0  0
 11 12  1  0  0  0  0
 11 10  2  0  0  0  0
 12 13  2  0  0  0  0
 13 14  1  0  0  0  0
 13 15  1  0  0  0  0
 16  7  1  0  0  0  0
 16 15  2  0  0  0  0
 17  9  1  0  0  0  0
 19 24  2  0  0  0  0
 19 20  1  0  0  0  0
 20 21  2  0  0  0  0
 21 22  1  0  0  0  0
 21 18  1  0  0  0  0
 23 22  2  0  0  0  0
 24 23  1  0  0  0  0
 25 26  1  0  0  0  0
 26 19  1  0  0  0  0
 27 24  1  0  0  0  0
 28 27  1  0  0  0  0
M  END
>  <MODEL>
7

>  <REMARK>
 VINA RESULT:    -7.490      9.226     12.382
 INTER + INTRA:         -10.546
 INTER:                  -9.880
 INTRA:                  -0.666
 UNBOUND:                -0.647
  Name = CHEMBL146284
  7 active torsions:
  status: ('A' for Active; 'I' for Inactive)
    1  A    between atoms: C_1  and  O_2
    2  A    between atoms: O_2  and  C_3
    3  A    between atoms: C_5  and  C_6
    4  A    between atoms: C_6  and  N_7
    5  A    between atoms: C_8  and  C_10
    6  A    between atoms: C_10  and  C_12
    7  A    between atoms: C_24  and  O_25
                            x       y       z     vdW  Elec       q    Type
                         _______ _______ _______ _____ _____    ______ ____

>  <TORSDO>
F 6

>  <SCORE>
-7.490

>  <RMSD_LB>
9.226

>  <RMSD_UB>
12.382

$$$$
CHEMBL146284
 OpenBabel10172500373D

 28 30  0  0  0  0  0  0  0  0999 V2000
  143.8620  139.8180  153.5010 N   0  0  0  0  0  0  0  0  0  0  0  0
  145.1970  139.7440  153.8550 C   0  0  0  0  0  0  0  0  0  0  0  0
  145.6560  138.8290  154.5250 O   0  0  0  0  0  0  0  0  0  0  0  0
  143.5540  140.5250  152.8890 H   0  0  0  0  0  0  0  0  0  0  0  0
  146.0710  140.9170  153.3440 C   0  0  0  0  0  0  0  0  0  0  0  0
  146.7940  141.4600  154.1810 O   0  0  0  0  0  0  0  0  0  0  0  0
  146.0310  141.3530  151.9420 C   0  0  0  0  0  0  0  0  0  0  0  0
  145.7700  142.6360  151.4930 C   0  0  0  0  0  3  0  0  0  0  0  0
  145.8330  142.6570  150.1280 N   0  0  0  0  0  0  0  0  0  0  0  0
  146.1270  141.4050  149.6510 C   0  0  0  0  0  0  0  0  0  0  0  0
  146.2880  140.9740  148.3310 C   0  0  0  0  0  3  0  0  0  0  0  0
  146.5860  139.6270  148.1230 C   0  0  0  0  0  3  0  0  0  0  0  0
  146.7120  138.7550  149.2000 C   0  0  0  0  0  0  0  0  0  0  0  0
  147.0800  137.0980  148.9020 Cl  0  0  0  0  0  0  0  0  0  0  0  0
  146.5490  139.1980  150.5190 C   0  0  0  0  0  3  0  0  0  0  0  0
  146.2510  140.5590  150.7590 C   0  0  0  0  0  0  0  0  0  0  0  0
  145.6890  143.4550  149.5690 H   0  0  0  0  0  0  0  0  0  0  0  0
  142.9210  138.8590  154.0240 C   0  0  0  0  0  2  0  0  0  0  0  0
  141.9830  137.0170  150.8180 C   0  0  0  0  0  0  0  0  0  0  0  0
  142.7330  137.5750  151.8590 C   0  0  0  0  0  3  0  0  0  0  0  0
  142.1020  138.2090  152.9430 C   0  0  0  0  0  0  0  0  0  0  0  0
  140.7030  138.2870  152.9700 C   0  0  0  0  0  3  0  0  0  0  0  0
  139.9440  137.7370  151.9380 C   0  0  0  0  0  3  0  0  0  0  0  0
  140.5860  137.1070  150.8720 C   0  0  0  0  0  0  0  0  0  0  0  0
  143.2250  137.1800  148.7890 C   0  0  0  0  0  1  0  0  0  0  0  0
  142.5120  136.3840  149.7240 O   0  0  0  0  0  0  0  0  0  0  0  0
  139.8420  136.5730  149.8530 O   0  0  0  0  0  0  0  0  0  0  0  0
  139.4770  135.7150  149.9390 H   0  0  0  0  0  0  0  0  0  0  0  0
  1  2  1  0  0  0  0
  1 18  1  0  0  0  0
  2  3  2  0  0  0  0
  4  1  1  0  0  0  0
  5  2  1  0  0  0  0
  5  6  2  0  0  0  0
  7  5  1  0  0  0  0
  8  7  2  0  0  0  0
  9  8  1  0  0  0  0
 10  9  1  0  0  0  0
 10 16  1  0  0  0  0
 11 10  2  0  0  0  0
 12 11  1  0  0  0  0
 12 13  2  0  0  0  0
 13 15  1  0  0  0  0
 14 13  1  0  0  0  0
 15 16  2  0  0  0  0
 16  7  1  0  0  0  0
 17  9  1  0  0  0  0
 19 24  2  0  0  0  0
 19 20  1  0  0  0  0
 20 21  2  0  0  0  0
 21 22  1  0  0  0  0
 21 18  1  0  0  0  0
 23 22  2  0  0  0  0
 24 23  1  0  0  0  0
 25 26  1  0  0  0  0
 26 19  1  0  0  0  0
 27 28  1  0  0  0  0
 27 24  1  0  0  0  0
M  END
>  <MODEL>
8

>  <REMARK>
 VINA RESULT:    -7.263      8.823     11.198
 INTER + INTRA:         -10.245
 INTER:                  -9.168
 INTRA:                  -1.077
 UNBOUND:                -0.647
  Name = CHEMBL146284
  7 active torsions:
  status: ('A' for Active; 'I' for Inactive)
    1  A    between atoms: C_1  and  O_2
    2  A    between atoms: O_2  and  C_3
    3  A    between atoms: C_5  and  C_6
    4  A    between atoms: C_6  and  N_7
    5  A    between atoms: C_8  and  C_10
    6  A    between atoms: C_10  and  C_12
    7  A    between atoms: C_24  and  O_25
                            x       y       z     vdW  Elec       q    Type
                         _______ _______ _______ _____ _____    ______ ____

>  <TORSDO>
F 6

>  <SCORE>
-7.263

>  <RMSD_LB>
8.823

>  <RMSD_UB>
11.198

$$$$
CHEMBL146284
 OpenBabel10172500373D

 28 30  0  0  0  0  0  0  0  0999 V2000
  139.1600  137.0470  150.2400 N   0  0  0  0  0  0  0  0  0  0  0  0
  138.6680  136.8360  148.9650 C   0  0  0  0  0  0  0  0  0  0  0  0
  139.3910  136.6440  147.9980 O   0  0  0  0  0  0  0  0  0  0  0  0
  138.5400  137.1120  151.0020 H   0  0  0  0  0  0  0  0  0  0  0  0
  137.1220  136.8710  148.8510 C   0  0  0  0  0  0  0  0  0  0  0  0
  136.5970  137.9830  148.9290 O   0  0  0  0  0  0  0  0  0  0  0  0
  136.3370  135.6450  148.6640 C   0  0  0  0  0  0  0  0  0  0  0  0
  136.2740  134.8840  147.5080 C   0  0  0  0  0  3  0  0  0  0  0  0
  135.4530  133.8130  147.7180 N   0  0  0  0  0  0  0  0  0  0  0  0
  134.9560  133.8440  148.9970 C   0  0  0  0  0  0  0  0  0  0  0  0
  134.0880  132.9520  149.6330 C   0  0  0  0  0  3  0  0  0  0  0  0
  133.7360  133.2240  150.9550 C   0  0  0  0  0  3  0  0  0  0  0  0
  134.2360  134.3500  151.6030 C   0  0  0  0  0  0  0  0  0  0  0  0
  133.7770  134.6530  153.2360 Cl  0  0  0  0  0  0  0  0  0  0  0  0
  135.1060  135.2370  150.9560 C   0  0  0  0  0  3  0  0  0  0  0  0
  135.4820  134.9830  149.6170 C   0  0  0  0  0  0  0  0  0  0  0  0
  135.2480  133.1200  147.0500 H   0  0  0  0  0  0  0  0  0  0  0  0
  140.5800  137.1710  150.4560 C   0  0  0  0  0  2  0  0  0  0  0  0
  140.2390  138.5620  153.9910 C   0  0  0  0  0  0  0  0  0  0  0  0
  139.9270  138.1310  152.6970 C   0  0  0  0  0  3  0  0  0  0  0  0
  140.9130  137.5730  151.8660 C   0  0  0  0  0  0  0  0  0  0  0  0
  142.2260  137.4580  152.3440 C   0  0  0  0  0  3  0  0  0  0  0  0
  142.5500  137.8860  153.6310 C   0  0  0  0  0  3  0  0  0  0  0  0
  141.5580  138.4330  154.4440 C   0  0  0  0  0  0  0  0  0  0  0  0
  138.1070  138.4490  155.0530 C   0  0  0  0  0  1  0  0  0  0  0  0
  139.3450  139.1190  154.8670 O   0  0  0  0  0  0  0  0  0  0  0  0
  141.8770  138.8610  155.7060 O   0  0  0  0  0  0  0  0  0  0  0  0
  142.0630  138.2370  156.3790 H   0  0  0  0  0  0  0  0  0  0  0  0
  1 18  1  0  0  0  0
  1  4  1  0  0  0  0
  2  1  1  0  0  0  0
  3  2  2  0  0  0  0
  5  6  2  0  0  0  0
  5  2  1  0  0  0  0
  7  5  1  0  0  0  0
  7 16  1  0  0  0  0
  8  9  1  0  0  0  0
  8  7  2  0  0  0  0
  9 10  1  0  0  0  0
 10 16  2  0  0  0  0
 10 11  1  0  0  0  0
 11 12  2  0  0  0  0
 12 13  1  0  0  0  0
 13 14  1  0  0  0  0
 15 13  2  0  0  0  0
 16 15  1  0  0  0  0
 17  9  1  0  0  0  0
 18 21  1  0  0  0  0
 19 24  1  0  0  0  0
 19 26  1  0  0  0  0
 20 19  2  0  0  0  0
 21 22  2  0  0  0  0
 21 20  1  0  0  0  0
 22 23  1  0  0  0  0
 23 24  2  0  0  0  0
 24 27  1  0  0  0  0
 26 25  1  0  0  0  0
 27 28  1  0  0  0  0
M  END
>  <MODEL>
9

>  <REMARK>
 VINA RESULT:    -7.256      3.963      8.435
 INTER + INTRA:         -10.237
 INTER:                  -9.590
 INTRA:                  -0.647
 UNBOUND:                -0.647
  Name = CHEMBL146284
  7 active torsions:
  status: ('A' for Active; 'I' for Inactive)
    1  A    between atoms: C_1  and  O_2
    2  A    between atoms: O_2  and  C_3
    3  A    between atoms: C_5  and  C_6
    4  A    between atoms: C_6  and  N_7
    5  A    between atoms: C_8  and  C_10
    6  A    between atoms: C_10  and  C_12
    7  A    between atoms: C_24  and  O_25
                            x       y       z     vdW  Elec       q    Type
                         _______ _______ _______ _____ _____    ______ ____

>  <TORSDO>
F 6

>  <SCORE>
-7.256

>  <RMSD_LB>
3.963

>  <RMSD_UB>
8.435

$$$$
