CHEMBL76789
 OpenBabel10172500053D

 23 23  0  0  0  0  0  0  0  0999 V2000
  146.6190  137.8270  154.6420 C   0  0  0  0  0  0  0  0  0  0  0  0
  146.0870  138.9590  154.9360 N   0  0  0  0  0  0  0  0  0  0  0  0
  148.1910  137.5760  155.3790 S   0  0  0  0  0  0  0  0  0  0  0  0
  148.3630  138.4660  156.3930 H   0  0  0  0  0  0  0  0  0  0  0  0
  146.0030  136.8100  153.6910 C   0  0  0  0  0  2  0  0  0  0  0  0
  146.5140  136.6580  152.2600 C   0  0  0  0  0  2  0  0  0  0  0  0
  145.4630  136.2920  151.2090 C   0  0  0  0  0  2  0  0  0  0  0  0
  144.1240  136.9810  151.4340 C   0  0  0  0  0  2  0  0  0  0  0  0
  143.1840  136.7200  150.2630 C   0  0  0  0  0  2  0  0  0  0  0  0
  141.7480  137.0070  150.6800 C   0  0  0  0  0  2  0  0  0  0  0  0
  140.5180  138.4020  152.3510 C   0  0  0  0  0  1  0  0  0  0  0  0
  141.6810  137.4520  152.1350 C   0  0  0  0  0  2  0  0  0  0  0  0
  144.8250  139.3600  154.3300 C   0  0  0  0  0  2  0  0  0  0  0  0
  145.0920  140.3070  153.1870 C   0  0  0  0  0  0  0  0  0  0  0  0
  145.9610  141.3890  153.3640 C   0  0  0  0  0  3  0  0  0  0  0  0
  146.1930  142.2870  152.3250 C   0  0  0  0  0  3  0  0  0  0  0  0
  145.5600  142.1070  151.0900 C   0  0  0  0  0  0  0  0  0  0  0  0
  144.6900  141.0310  150.8840 C   0  0  0  0  0  0  0  0  0  0  0  0
  144.4630  140.1380  151.9470 C   0  0  0  0  0  3  0  0  0  0  0  0
  145.8240  143.0180  150.1020 O   0  0  0  0  0  0  0  0  0  0  0  0
  146.2120  143.8440  150.3180 H   0  0  0  0  0  0  0  0  0  0  0  0
  143.9800  140.7040  149.7630 O   0  0  0  0  0  0  0  0  0  0  0  0
  144.6150  139.8900  148.7900 C   0  0  0  0  0  1  0  0  0  0  0  0
  1  2  2  0  0  0  0
  1  3  1  0  0  0  0
  3  4  1  0  0  0  0
  5  1  1  0  0  0  0
  6  5  1  0  0  0  0
  7  8  1  0  0  0  0
  7  6  1  0  0  0  0
  9 10  1  0  0  0  0
  9  8  1  0  0  0  0
 10 12  1  0  0  0  0
 12 11  1  0  0  0  0
 13  2  1  0  0  0  0
 14 15  1  0  0  0  0
 14 13  1  0  0  0  0
 16 15  2  0  0  0  0
 17 16  1  0  0  0  0
 18 17  2  0  0  0  0
 18 19  1  0  0  0  0
 19 14  2  0  0  0  0
 20 21  1  0  0  0  0
 20 17  1  0  0  0  0
 22 18  1  0  0  0  0
 23 22  1  0  0  0  0
M  END
>  <MODEL>
1

>  <REMARK>
 VINA RESULT:    -6.013      0.000      0.000
 INTER + INTRA:         -10.858
 INTER:                  -9.388
 INTRA:                  -1.470
 UNBOUND:                -0.979
  Name = CHEMBL76789
  14 active torsions:
  status: ('A' for Active; 'I' for Inactive)
    1  A    between atoms: C_1  and  C_2
    2  A    between atoms: C_2  and  C_3
    3  A    between atoms: C_3  and  C_4
    4  A    between atoms: C_4  and  C_5
    5  A    between atoms: C_5  and  C_6
    6  A    between atoms: C_6  and  C_7
    7  A    between atoms: C_7  and  C_8
    8  A    between atoms: C_8  and  C_9
    9  A    between atoms: C_9  and  S_10
   10  A    between atoms: N_11  and  C_12
   11  A    between atoms: C_12  and  C_13
   12  A    between atoms: C_16  and  O_17
   13  A    between atoms: C_18  and  O_19
   14  A    between atoms: O_19  and  C_20
                            x       y       z     vdW  Elec       q    Type
                         _______ _______ _______ _____ _____    ______ ____

>  <TORSDO>
F 12

>  <SCORE>
-6.013

>  <RMSD_LB>
0.000

>  <RMSD_UB>
0.000

$$$$
CHEMBL76789
 OpenBabel10172500053D

 23 23  0  0  0  0  0  0  0  0999 V2000
  135.1040  135.3310  152.6780 C   0  0  0  0  0  0  0  0  0  0  0  0
  135.7960  136.4060  152.8100 N   0  0  0  0  0  0  0  0  0  0  0  0
  133.7980  135.1880  153.8410 S   0  0  0  0  0  0  0  0  0  0  0  0
  134.2750  134.6490  154.9940 H   0  0  0  0  0  0  0  0  0  0  0  0
  135.4080  134.2340  151.6660 C   0  0  0  0  0  2  0  0  0  0  0  0
  134.2860  133.4090  151.0390 C   0  0  0  0  0  2  0  0  0  0  0  0
  134.3510  133.2400  149.5180 C   0  0  0  0  0  2  0  0  0  0  0  0
  133.5150  134.2640  148.7640 C   0  0  0  0  0  2  0  0  0  0  0  0
  132.6290  135.0460  149.7270 C   0  0  0  0  0  2  0  0  0  0  0  0
  132.8320  136.5400  149.5160 C   0  0  0  0  0  2  0  0  0  0  0  0
  132.5670  137.2590  147.1360 C   0  0  0  0  0  1  0  0  0  0  0  0
  133.5510  136.8140  148.2030 C   0  0  0  0  0  2  0  0  0  0  0  0
  136.9730  136.6320  151.9830 C   0  0  0  0  0  2  0  0  0  0  0  0
  137.9740  137.4630  152.7450 C   0  0  0  0  0  0  0  0  0  0  0  0
  138.9760  138.1540  152.0580 C   0  0  0  0  0  3  0  0  0  0  0  0
  139.9230  138.9030  152.7530 C   0  0  0  0  0  3  0  0  0  0  0  0
  139.8730  138.9720  154.1500 C   0  0  0  0  0  0  0  0  0  0  0  0
  138.8780  138.2940  154.8630 C   0  0  0  0  0  0  0  0  0  0  0  0
  137.9340  137.5390  154.1440 C   0  0  0  0  0  3  0  0  0  0  0  0
  140.8280  139.7220  154.7840 O   0  0  0  0  0  0  0  0  0  0  0  0
  140.7260  139.9430  155.6890 H   0  0  0  0  0  0  0  0  0  0  0  0
  138.6790  138.2350  156.2130 O   0  0  0  0  0  0  0  0  0  0  0  0
  137.3550  138.0330  156.6800 C   0  0  0  0  0  1  0  0  0  0  0  0
  1  2  2  0  0  0  0
  1  3  1  0  0  0  0
  3  4  1  0  0  0  0
  5  1  1  0  0  0  0
  6  5  1  0  0  0  0
  7  6  1  0  0  0  0
  8  7  1  0  0  0  0
  8  9  1  0  0  0  0
 10  9  1  0  0  0  0
 11 12  1  0  0  0  0
 12 10  1  0  0  0  0
 13 14  1  0  0  0  0
 13  2  1  0  0  0  0
 14 19  1  0  0  0  0
 15 14  2  0  0  0  0
 15 16  1  0  0  0  0
 16 17  2  0  0  0  0
 17 20  1  0  0  0  0
 17 18  1  0  0  0  0
 18 22  1  0  0  0  0
 19 18  2  0  0  0  0
 20 21  1  0  0  0  0
 22 23  1  0  0  0  0
M  END
>  <MODEL>
2

>  <REMARK>
 VINA RESULT:    -5.835      7.341      9.884
 INTER + INTRA:         -10.567
 INTER:                  -9.758
 INTRA:                  -0.809
 UNBOUND:                -0.979
  Name = CHEMBL76789
  14 active torsions:
  status: ('A' for Active; 'I' for Inactive)
    1  A    between atoms: C_1  and  C_2
    2  A    between atoms: C_2  and  C_3
    3  A    between atoms: C_3  and  C_4
    4  A    between atoms: C_4  and  C_5
    5  A    between atoms: C_5  and  C_6
    6  A    between atoms: C_6  and  C_7
    7  A    between atoms: C_7  and  C_8
    8  A    between atoms: C_8  and  C_9
    9  A    between atoms: C_9  and  S_10
   10  A    between atoms: N_11  and  C_12
   11  A    between atoms: C_12  and  C_13
   12  A    between atoms: C_16  and  O_17
   13  A    between atoms: C_18  and  O_19
   14  A    between atoms: O_19  and  C_20
                            x       y       z     vdW  Elec       q    Type
                         _______ _______ _______ _____ _____    ______ ____

>  <TORSDO>
F 12

>  <SCORE>
-5.835

>  <RMSD_LB>
7.341

>  <RMSD_UB>
9.884

$$$$
CHEMBL76789
 OpenBabel10172500053D

 23 23  0  0  0  0  0  0  0  0999 V2000
  138.0290  138.4450  149.6890 C   0  0  0  0  0  0  0  0  0  0  0  0
  139.3010  138.3630  149.8470 N   0  0  0  0  0  0  0  0  0  0  0  0
  137.5060  139.9500  148.9540 S   0  0  0  0  0  0  0  0  0  0  0  0
  138.5610  140.8040  148.8720 H   0  0  0  0  0  0  0  0  0  0  0  0
  137.0360  137.3850  150.1500 C   0  0  0  0  0  2  0  0  0  0  0  0
  136.6550  136.2160  149.2440 C   0  0  0  0  0  2  0  0  0  0  0  0
  136.7700  134.8220  149.8680 C   0  0  0  0  0  2  0  0  0  0  0  0
  136.0970  134.7170  151.2300 C   0  0  0  0  0  2  0  0  0  0  0  0
  134.5850  134.8470  151.0920 C   0  0  0  0  0  2  0  0  0  0  0  0
  133.9720  133.4770  150.8300 C   0  0  0  0  0  2  0  0  0  0  0  0
  133.6490  133.0160  148.3940 C   0  0  0  0  0  1  0  0  0  0  0  0
  132.9960  133.5310  149.6620 C   0  0  0  0  0  2  0  0  0  0  0  0
  139.8880  137.2170  150.5280 C   0  0  0  0  0  2  0  0  0  0  0  0
  140.4780  137.6590  151.8440 C   0  0  0  0  0  0  0  0  0  0  0  0
  141.8400  137.4720  152.0960 C   0  0  0  0  0  3  0  0  0  0  0  0
  142.3910  137.8510  153.3180 C   0  0  0  0  0  3  0  0  0  0  0  0
  141.5810  138.4270  154.3030 C   0  0  0  0  0  0  0  0  0  0  0  0
  140.2150  138.6300  154.0750 C   0  0  0  0  0  0  0  0  0  0  0  0
  139.6760  138.2360  152.8370 C   0  0  0  0  0  3  0  0  0  0  0  0
  142.1740  138.7810  155.4860 O   0  0  0  0  0  0  0  0  0  0  0  0
  143.0900  138.9770  155.5110 H   0  0  0  0  0  0  0  0  0  0  0  0
  139.2760  139.1610  154.9120 O   0  0  0  0  0  0  0  0  0  0  0  0
  138.1220  138.3840  155.1920 C   0  0  0  0  0  1  0  0  0  0  0  0
  1  2  2  0  0  0  0
  1  5  1  0  0  0  0
  2 13  1  0  0  0  0
  3  1  1  0  0  0  0
  4  3  1  0  0  0  0
  6  7  1  0  0  0  0
  6  5  1  0  0  0  0
  7  8  1  0  0  0  0
  9  8  1  0  0  0  0
 10  9  1  0  0  0  0
 11 12  1  0  0  0  0
 12 10  1  0  0  0  0
 13 14  1  0  0  0  0
 14 15  2  0  0  0  0
 14 19  1  0  0  0  0
 15 16  1  0  0  0  0
 16 17  2  0  0  0  0
 17 20  1  0  0  0  0
 18 17  1  0  0  0  0
 18 22  1  0  0  0  0
 19 18  2  0  0  0  0
 20 21  1  0  0  0  0
 22 23  1  0  0  0  0
M  END
>  <MODEL>
3

>  <REMARK>
 VINA RESULT:    -5.690      6.059      8.347
 INTER + INTRA:         -10.328
 INTER:                  -9.344
 INTRA:                  -0.984
 UNBOUND:                -0.979
  Name = CHEMBL76789
  14 active torsions:
  status: ('A' for Active; 'I' for Inactive)
    1  A    between atoms: C_1  and  C_2
    2  A    between atoms: C_2  and  C_3
    3  A    between atoms: C_3  and  C_4
    4  A    between atoms: C_4  and  C_5
    5  A    between atoms: C_5  and  C_6
    6  A    between atoms: C_6  and  C_7
    7  A    between atoms: C_7  and  C_8
    8  A    between atoms: C_8  and  C_9
    9  A    between atoms: C_9  and  S_10
   10  A    between atoms: N_11  and  C_12
   11  A    between atoms: C_12  and  C_13
   12  A    between atoms: C_16  and  O_17
   13  A    between atoms: C_18  and  O_19
   14  A    between atoms: O_19  and  C_20
                            x       y       z     vdW  Elec       q    Type
                         _______ _______ _______ _____ _____    ______ ____

>  <TORSDO>
F 12

>  <SCORE>
-5.690

>  <RMSD_LB>
6.059

>  <RMSD_UB>
8.347

$$$$
CHEMBL76789
 OpenBabel10172500053D

 23 23  0  0  0  0  0  0  0  0999 V2000
  145.0370  139.9980  149.1360 C   0  0  0  0  0  0  0  0  0  0  0  0
  146.1350  140.6060  149.4110 N   0  0  0  0  0  0  0  0  0  0  0  0
  145.2220  138.7090  147.9600 S   0  0  0  0  0  0  0  0  0  0  0  0
  146.2500  139.0050  147.1210 H   0  0  0  0  0  0  0  0  0  0  0  0
  143.6770  140.3820  149.7050 C   0  0  0  0  0  2  0  0  0  0  0  0
  142.4050  139.6660  149.2560 C   0  0  0  0  0  2  0  0  0  0  0  0
  141.8200  138.6570  150.2480 C   0  0  0  0  0  2  0  0  0  0  0  0
  142.1910  137.2170  149.9280 C   0  0  0  0  0  2  0  0  0  0  0  0
  143.3310  136.7460  150.8240 C   0  0  0  0  0  2  0  0  0  0  0  0
  143.1850  137.3580  152.2110 C   0  0  0  0  0  2  0  0  0  0  0  0
  144.1470  139.4260  153.2350 C   0  0  0  0  0  1  0  0  0  0  0  0
  144.4640  138.0720  152.6300 C   0  0  0  0  0  2  0  0  0  0  0  0
  146.1360  141.7600  150.2980 C   0  0  0  0  0  2  0  0  0  0  0  0
  146.7980  141.3930  151.6030 C   0  0  0  0  0  0  0  0  0  0  0  0
  146.7030  142.2530  152.7010 C   0  0  0  0  0  3  0  0  0  0  0  0
  147.3330  141.9390  153.9020 C   0  0  0  0  0  3  0  0  0  0  0  0
  148.0650  140.7520  154.0190 C   0  0  0  0  0  0  0  0  0  0  0  0
  148.1730  139.8710  152.9370 C   0  0  0  0  0  0  0  0  0  0  0  0
  147.5340  140.2080  151.7300 C   0  0  0  0  0  3  0  0  0  0  0  0
  148.6650  140.4910  155.2220 O   0  0  0  0  0  0  0  0  0  0  0  0
  148.2220  140.6990  156.0210 H   0  0  0  0  0  0  0  0  0  0  0  0
  148.8470  138.6850  152.8610 O   0  0  0  0  0  0  0  0  0  0  0  0
  148.1370  137.4980  153.1760 C   0  0  0  0  0  1  0  0  0  0  0  0
  1  2  2  0  0  0  0
  1  5  1  0  0  0  0
  2 13  1  0  0  0  0
  3  1  1  0  0  0  0
  4  3  1  0  0  0  0
  6  5  1  0  0  0  0
  6  7  1  0  0  0  0
  8  7  1  0  0  0  0
  8  9  1  0  0  0  0
  9 10  1  0  0  0  0
 10 12  1  0  0  0  0
 12 11  1  0  0  0  0
 13 14  1  0  0  0  0
 14 19  2  0  0  0  0
 14 15  1  0  0  0  0
 15 16  2  0  0  0  0
 16 17  1  0  0  0  0
 17 20  1  0  0  0  0
 18 17  2  0  0  0  0
 19 18  1  0  0  0  0
 20 21  1  0  0  0  0
 22 18  1  0  0  0  0
 22 23  1  0  0  0  0
M  END
>  <MODEL>
4

>  <REMARK>
 VINA RESULT:    -5.611      3.244      4.651
 INTER + INTRA:         -10.199
 INTER:                  -8.271
 INTRA:                  -1.927
 UNBOUND:                -0.979
  Name = CHEMBL76789
  14 active torsions:
  status: ('A' for Active; 'I' for Inactive)
    1  A    between atoms: C_1  and  C_2
    2  A    between atoms: C_2  and  C_3
    3  A    between atoms: C_3  and  C_4
    4  A    between atoms: C_4  and  C_5
    5  A    between atoms: C_5  and  C_6
    6  A    between atoms: C_6  and  C_7
    7  A    between atoms: C_7  and  C_8
    8  A    between atoms: C_8  and  C_9
    9  A    between atoms: C_9  and  S_10
   10  A    between atoms: N_11  and  C_12
   11  A    between atoms: C_12  and  C_13
   12  A    between atoms: C_16  and  O_17
   13  A    between atoms: C_18  and  O_19
   14  A    between atoms: O_19  and  C_20
                            x       y       z     vdW  Elec       q    Type
                         _______ _______ _______ _____ _____    ______ ____

>  <TORSDO>
F 12

>  <SCORE>
-5.611

>  <RMSD_LB>
3.244

>  <RMSD_UB>
4.651

$$$$
CHEMBL76789
 OpenBabel10172500053D

 23 23  0  0  0  0  0  0  0  0999 V2000
  135.6440  136.8140  143.8500 C   0  0  0  0  0  0  0  0  0  0  0  0
  134.5530  136.6400  144.5060 N   0  0  0  0  0  0  0  0  0  0  0  0
  135.6820  138.3080  142.9310 S   0  0  0  0  0  0  0  0  0  0  0  0
  136.0790  138.0460  141.6570 H   0  0  0  0  0  0  0  0  0  0  0  0
  136.7840  135.8040  143.7960 C   0  0  0  0  0  3  0  0  0  0  0  0
  136.8790  134.7830  142.6650 C   0  0  0  0  0  3  0  0  0  0  0  0
  137.8760  133.6410  142.8780 C   0  0  0  0  0  2  0  0  0  0  0  0
  137.2780  132.2650  142.6210 C   0  0  0  0  0  2  0  0  0  0  0  0
  136.1740  131.9640  143.6280 C   0  0  0  0  0  2  0  0  0  0  0  0
  136.7850  131.4460  144.9230 C   0  0  0  0  0  2  0  0  0  0  0  0
  137.4370  133.2060  146.5750 C   0  0  0  0  0  1  0  0  0  0  0  0
  136.3280  132.2790  146.1130 C   0  0  0  0  0  2  0  0  0  0  0  0
  134.3260  135.4060  145.2460 C   0  0  0  0  0  2  0  0  0  0  0  0
  133.8520  135.7330  146.6390 C   0  0  0  0  0  0  0  0  0  0  0  0
  132.9400  136.7740  146.8410 C   0  0  0  0  0  3  0  0  0  0  0  0
  132.5160  137.1040  148.1270 C   0  0  0  0  0  3  0  0  0  0  0  0
  133.0000  136.3890  149.2280 C   0  0  0  0  0  0  0  0  0  0  0  0
  133.9090  135.3390  149.0540 C   0  0  0  0  0  0  0  0  0  0  0  0
  134.3300  135.0250  147.7500 C   0  0  0  0  0  3  0  0  0  0  0  0
  132.5500  136.7540  150.4690 O   0  0  0  0  0  0  0  0  0  0  0  0
  131.7960  136.3360  150.8360 H   0  0  0  0  0  0  0  0  0  0  0  0
  134.4930  134.5450  150.0000 O   0  0  0  0  0  0  0  0  0  0  0  0
  133.7770  133.4020  150.4390 C   0  0  0  0  0  1  0  0  0  0  0  0
  1  2  2  0  0  0  0
  2 13  1  0  0  0  0
  3  1  1  0  0  0  0
  4  3  1  0  0  0  0
  5  1  1  0  0  0  0
  6  7  1  0  0  0  0
  6  5  2  0  0  0  0
  8  7  1  0  0  0  0
  8  9  1  0  0  0  0
  9 10  1  0  0  0  0
 10 12  1  0  0  0  0
 12 11  1  0  0  0  0
 13 14  1  0  0  0  0
 14 15  2  0  0  0  0
 14 19  1  0  0  0  0
 15 16  1  0  0  0  0
 16 17  2  0  0  0  0
 17 20  1  0  0  0  0
 18 17  1  0  0  0  0
 18 22  1  0  0  0  0
 19 18  2  0  0  0  0
 20 21  1  0  0  0  0
 22 23  1  0  0  0  0
M  END
>  <MODEL>
5

>  <REMARK>
 VINA RESULT:    -5.526     11.848     13.234
 INTER + INTRA:         -10.058
 INTER:                  -8.554
 INTRA:                  -1.503
 UNBOUND:                -0.979
  Name = CHEMBL76789
  14 active torsions:
  status: ('A' for Active; 'I' for Inactive)
    1  A    between atoms: C_1  and  C_2
    2  A    between atoms: C_2  and  C_3
    3  A    between atoms: C_3  and  C_4
    4  A    between atoms: C_4  and  C_5
    5  A    between atoms: C_5  and  C_6
    6  A    between atoms: C_6  and  C_7
    7  A    between atoms: C_7  and  C_8
    8  A    between atoms: C_8  and  C_9
    9  A    between atoms: C_9  and  S_10
   10  A    between atoms: N_11  and  C_12
   11  A    between atoms: C_12  and  C_13
   12  A    between atoms: C_16  and  O_17
   13  A    between atoms: C_18  and  O_19
   14  A    between atoms: O_19  and  C_20
                            x       y       z     vdW  Elec       q    Type
                         _______ _______ _______ _____ _____    ______ ____

>  <TORSDO>
F 12

>  <SCORE>
-5.526

>  <RMSD_LB>
11.848

>  <RMSD_UB>
13.234

$$$$
CHEMBL76789
 OpenBabel10172500053D

 23 23  0  0  0  0  0  0  0  0999 V2000
  145.5020  138.0850  154.0590 C   0  0  0  0  0  0  0  0  0  0  0  0
  144.2350  138.0740  153.8470 N   0  0  0  0  0  0  0  0  0  0  0  0
  146.2900  136.5630  153.6860 S   0  0  0  0  0  0  0  0  0  0  0  0
  145.9380  135.6310  154.6100 H   0  0  0  0  0  0  0  0  0  0  0  0
  146.2640  139.2660  154.6460 C   0  0  0  0  0  2  0  0  0  0  0  0
  147.2070  140.1020  153.7840 C   0  0  0  0  0  2  0  0  0  0  0  0
  147.1320  141.6180  153.9870 C   0  0  0  0  0  2  0  0  0  0  0  0
  146.2410  142.3170  152.9720 C   0  0  0  0  0  2  0  0  0  0  0  0
  146.8450  142.2250  151.5750 C   0  0  0  0  0  2  0  0  0  0  0  0
  145.7400  142.0260  150.5460 C   0  0  0  0  0  2  0  0  0  0  0  0
  144.6730  139.7660  150.6200 C   0  0  0  0  0  1  0  0  0  0  0  0
  144.6010  141.1960  151.1230 C   0  0  0  0  0  2  0  0  0  0  0  0
  143.4190  139.2300  154.1940 C   0  0  0  0  0  2  0  0  0  0  0  0
  141.9660  138.9170  153.9380 C   0  0  0  0  0  0  0  0  0  0  0  0
  141.0600  138.8880  155.0020 C   0  0  0  0  0  3  0  0  0  0  0  0
  139.7210  138.5730  154.7830 C   0  0  0  0  0  3  0  0  0  0  0  0
  139.2730  138.2870  153.4890 C   0  0  0  0  0  0  0  0  0  0  0  0
  140.1570  138.3130  152.4040 C   0  0  0  0  0  0  0  0  0  0  0  0
  141.5060  138.6280  152.6470 C   0  0  0  0  0  3  0  0  0  0  0  0
  137.9460  137.9840  153.3280 O   0  0  0  0  0  0  0  0  0  0  0  0
  137.6950  137.2360  152.8230 H   0  0  0  0  0  0  0  0  0  0  0  0
  139.9070  138.0530  151.0870 O   0  0  0  0  0  0  0  0  0  0  0  0
  140.6870  137.0540  150.4500 C   0  0  0  0  0  1  0  0  0  0  0  0
  1  5  1  0  0  0  0
  2  1  2  0  0  0  0
  2 13  1  0  0  0  0
  3  1  1  0  0  0  0
  3  4  1  0  0  0  0
  6  7  1  0  0  0  0
  6  5  1  0  0  0  0
  8  7  1  0  0  0  0
  9  8  1  0  0  0  0
 10 12  1  0  0  0  0
 10  9  1  0  0  0  0
 11 12  1  0  0  0  0
 14 13  1  0  0  0  0
 14 15  1  0  0  0  0
 16 15  2  0  0  0  0
 17 16  1  0  0  0  0
 18 19  1  0  0  0  0
 18 17  2  0  0  0  0
 19 14  2  0  0  0  0
 20 17  1  0  0  0  0
 21 20  1  0  0  0  0
 22 18  1  0  0  0  0
 23 22  1  0  0  0  0
M  END
>  <MODEL>
6

>  <REMARK>
 VINA RESULT:    -5.522      2.691      5.357
 INTER + INTRA:         -10.053
 INTER:                  -8.654
 INTRA:                  -1.398
 UNBOUND:                -0.979
  Name = CHEMBL76789
  14 active torsions:
  status: ('A' for Active; 'I' for Inactive)
    1  A    between atoms: C_1  and  C_2
    2  A    between atoms: C_2  and  C_3
    3  A    between atoms: C_3  and  C_4
    4  A    between atoms: C_4  and  C_5
    5  A    between atoms: C_5  and  C_6
    6  A    between atoms: C_6  and  C_7
    7  A    between atoms: C_7  and  C_8
    8  A    between atoms: C_8  and  C_9
    9  A    between atoms: C_9  and  S_10
   10  A    between atoms: N_11  and  C_12
   11  A    between atoms: C_12  and  C_13
   12  A    between atoms: C_16  and  O_17
   13  A    between atoms: C_18  and  O_19
   14  A    between atoms: O_19  and  C_20
                            x       y       z     vdW  Elec       q    Type
                         _______ _______ _______ _____ _____    ______ ____

>  <TORSDO>
F 12

>  <SCORE>
-5.522

>  <RMSD_LB>
2.691

>  <RMSD_UB>
5.357

$$$$
CHEMBL76789
 OpenBabel10172500053D

 23 23  0  0  0  0  0  0  0  0999 V2000
  138.1160  137.3320  148.8730 C   0  0  0  0  0  0  0  0  0  0  0  0
  137.5480  136.5730  148.0060 N   0  0  0  0  0  0  0  0  0  0  0  0
  138.3220  138.9880  148.3300 S   0  0  0  0  0  0  0  0  0  0  0  0
  139.0400  139.6810  149.2530 H   0  0  0  0  0  0  0  0  0  0  0  0
  138.6370  136.8550  150.2220 C   0  0  0  0  0  2  0  0  0  0  0  0
  138.0220  137.3570  151.5270 C   0  0  0  0  0  2  0  0  0  0  0  0
  136.7880  136.5960  152.0210 C   0  0  0  0  0  2  0  0  0  0  0  0
  136.6630  136.5760  153.5380 C   0  0  0  0  0  2  0  0  0  0  0  0
  135.9660  135.3030  154.0010 C   0  0  0  0  0  2  0  0  0  0  0  0
  135.7490  134.3720  152.8150 C   0  0  0  0  0  2  0  0  0  0  0  0
  133.9110  133.6940  151.2620 C   0  0  0  0  0  1  0  0  0  0  0  0
  134.2890  133.9550  152.7080 C   0  0  0  0  0  2  0  0  0  0  0  0
  137.3880  135.1490  148.2650 C   0  0  0  0  0  2  0  0  0  0  0  0
  135.9420  134.7620  148.0820 C   0  0  0  0  0  0  0  0  0  0  0  0
  135.6040  133.4370  147.7920 C   0  0  0  0  0  3  0  0  0  0  0  0
  134.2740  133.0740  147.5940 C   0  0  0  0  0  3  0  0  0  0  0  0
  133.2640  134.0370  147.6890 C   0  0  0  0  0  0  0  0  0  0  0  0
  133.5730  135.3690  147.9830 C   0  0  0  0  0  0  0  0  0  0  0  0
  134.9220  135.7190  148.1740 C   0  0  0  0  0  3  0  0  0  0  0  0
  131.9730  133.6260  147.4850 O   0  0  0  0  0  0  0  0  0  0  0  0
  131.5550  133.0660  148.1100 H   0  0  0  0  0  0  0  0  0  0  0  0
  132.7310  136.4390  148.1020 O   0  0  0  0  0  0  0  0  0  0  0  0
  132.5670  137.0120  149.3900 C   0  0  0  0  0  1  0  0  0  0  0  0
  1  5  1  0  0  0  0
  2 13  1  0  0  0  0
  2  1  2  0  0  0  0
  3  1  1  0  0  0  0
  3  4  1  0  0  0  0
  5  6  1  0  0  0  0
  6  7  1  0  0  0  0
  7  8  1  0  0  0  0
  8  9  1  0  0  0  0
 10  9  1  0  0  0  0
 11 12  1  0  0  0  0
 12 10  1  0  0  0  0
 14 19  1  0  0  0  0
 14 13  1  0  0  0  0
 15 14  2  0  0  0  0
 16 17  2  0  0  0  0
 16 15  1  0  0  0  0
 17 18  1  0  0  0  0
 18 22  1  0  0  0  0
 18 19  2  0  0  0  0
 20 17  1  0  0  0  0
 20 21  1  0  0  0  0
 22 23  1  0  0  0  0
M  END
>  <MODEL>
7

>  <REMARK>
 VINA RESULT:    -5.462      8.475     11.367
 INTER + INTRA:          -9.953
 INTER:                  -8.467
 INTRA:                  -1.486
 UNBOUND:                -0.979
  Name = CHEMBL76789
  14 active torsions:
  status: ('A' for Active; 'I' for Inactive)
    1  A    between atoms: C_1  and  C_2
    2  A    between atoms: C_2  and  C_3
    3  A    between atoms: C_3  and  C_4
    4  A    between atoms: C_4  and  C_5
    5  A    between atoms: C_5  and  C_6
    6  A    between atoms: C_6  and  C_7
    7  A    between atoms: C_7  and  C_8
    8  A    between atoms: C_8  and  C_9
    9  A    between atoms: C_9  and  S_10
   10  A    between atoms: N_11  and  C_12
   11  A    between atoms: C_12  and  C_13
   12  A    between atoms: C_16  and  O_17
   13  A    between atoms: C_18  and  O_19
   14  A    between atoms: O_19  and  C_20
                            x       y       z     vdW  Elec       q    Type
                         _______ _______ _______ _____ _____    ______ ____

>  <TORSDO>
F 12

>  <SCORE>
-5.462

>  <RMSD_LB>
8.475

>  <RMSD_UB>
11.367

$$$$
CHEMBL76789
 OpenBabel10172500053D

 23 23  0  0  0  0  0  0  0  0999 V2000
  145.4370  140.4020  148.9550 C   0  0  0  0  0  0  0  0  0  0  0  0
  146.3170  141.3290  149.0910 N   0  0  0  0  0  0  0  0  0  0  0  0
  145.7920  139.2810  147.6530 S   0  0  0  0  0  0  0  0  0  0  0  0
  145.8630  138.0170  148.1500 H   0  0  0  0  0  0  0  0  0  0  0  0
  144.1610  140.3020  149.7810 C   0  0  0  0  0  3  0  0  0  0  0  0
  143.9760  139.1900  150.8120 C   0  0  0  0  0  3  0  0  0  0  0  0
  142.6890  139.2530  151.6390 C   0  0  0  0  0  2  0  0  0  0  0  0
  142.1640  137.8820  152.0380 C   0  0  0  0  0  2  0  0  0  0  0  0
  140.9540  137.5040  151.1910 C   0  0  0  0  0  2  0  0  0  0  0  0
  141.4080  136.7370  149.9560 C   0  0  0  0  0  2  0  0  0  0  0  0
  140.1870  138.6750  148.9530 C   0  0  0  0  0  1  0  0  0  0  0  0
  141.1730  137.5510  148.6910 C   0  0  0  0  0  2  0  0  0  0  0  0
  146.1220  142.3930  150.0660 C   0  0  0  0  0  2  0  0  0  0  0  0
  146.8360  142.0410  151.3470 C   0  0  0  0  0  0  0  0  0  0  0  0
  148.2240  142.1800  151.4340 C   0  0  0  0  0  3  0  0  0  0  0  0
  148.8980  141.8310  152.6020 C   0  0  0  0  0  3  0  0  0  0  0  0
  148.1850  141.3420  153.7020 C   0  0  0  0  0  0  0  0  0  0  0  0
  146.7940  141.1970  153.6440 C   0  0  0  0  0  0  0  0  0  0  0  0
  146.1320  141.5480  152.4540 C   0  0  0  0  0  3  0  0  0  0  0  0
  148.8960  141.0140  154.8260 O   0  0  0  0  0  0  0  0  0  0  0  0
  149.8070  141.2240  154.8820 H   0  0  0  0  0  0  0  0  0  0  0  0
  145.9400  140.7290  154.6020 O   0  0  0  0  0  0  0  0  0  0  0  0
  145.7080  139.3300  154.6570 C   0  0  0  0  0  1  0  0  0  0  0  0
  1  2  2  0  0  0  0
  1  5  1  0  0  0  0
  2 13  1  0  0  0  0
  3  4  1  0  0  0  0
  3  1  1  0  0  0  0
  5  6  2  0  0  0  0
  6  7  1  0  0  0  0
  7  8  1  0  0  0  0
  9  8  1  0  0  0  0
 10  9  1  0  0  0  0
 12 11  1  0  0  0  0
 12 10  1  0  0  0  0
 13 14  1  0  0  0  0
 14 15  2  0  0  0  0
 14 19  1  0  0  0  0
 15 16  1  0  0  0  0
 16 17  2  0  0  0  0
 17 20  1  0  0  0  0
 18 17  1  0  0  0  0
 18 22  1  0  0  0  0
 19 18  2  0  0  0  0
 20 21  1  0  0  0  0
 22 23  1  0  0  0  0
M  END
>  <MODEL>
8

>  <REMARK>
 VINA RESULT:    -5.430      3.235      4.541
 INTER + INTRA:          -9.900
 INTER:                  -8.623
 INTRA:                  -1.278
 UNBOUND:                -0.979
  Name = CHEMBL76789
  14 active torsions:
  status: ('A' for Active; 'I' for Inactive)
    1  A    between atoms: C_1  and  C_2
    2  A    between atoms: C_2  and  C_3
    3  A    between atoms: C_3  and  C_4
    4  A    between atoms: C_4  and  C_5
    5  A    between atoms: C_5  and  C_6
    6  A    between atoms: C_6  and  C_7
    7  A    between atoms: C_7  and  C_8
    8  A    between atoms: C_8  and  C_9
    9  A    between atoms: C_9  and  S_10
   10  A    between atoms: N_11  and  C_12
   11  A    between atoms: C_12  and  C_13
   12  A    between atoms: C_16  and  O_17
   13  A    between atoms: C_18  and  O_19
   14  A    between atoms: O_19  and  C_20
                            x       y       z     vdW  Elec       q    Type
                         _______ _______ _______ _____ _____    ______ ____

>  <TORSDO>
F 12

>  <SCORE>
-5.430

>  <RMSD_LB>
3.235

>  <RMSD_UB>
4.541

$$$$
CHEMBL76789
 OpenBabel10172500053D

 23 23  0  0  0  0  0  0  0  0999 V2000
  144.0720  139.7490  149.8010 C   0  0  0  0  0  0  0  0  0  0  0  0
  145.0490  140.5480  150.0420 N   0  0  0  0  0  0  0  0  0  0  0  0
  144.3860  138.6300  148.4860 S   0  0  0  0  0  0  0  0  0  0  0  0
  143.6430  137.5050  148.6600 H   0  0  0  0  0  0  0  0  0  0  0  0
  142.7300  139.7910  150.5210 C   0  0  0  0  0  2  0  0  0  0  0  0
  142.4710  138.9270  151.7540 C   0  0  0  0  0  2  0  0  0  0  0  0
  141.7700  137.5900  151.4980 C   0  0  0  0  0  2  0  0  0  0  0  0
  140.3200  137.5740  151.9560 C   0  0  0  0  0  2  0  0  0  0  0  0
  139.3800  137.4980  150.7590 C   0  0  0  0  0  2  0  0  0  0  0  0
  139.1380  138.8960  150.2030 C   0  0  0  0  0  2  0  0  0  0  0  0
  137.5230  140.3840  149.0090 C   0  0  0  0  0  1  0  0  0  0  0  0
  137.8160  138.9620  149.4500 C   0  0  0  0  0  2  0  0  0  0  0  0
  144.9130  141.5980  151.0420 C   0  0  0  0  0  2  0  0  0  0  0  0
  145.8940  141.3590  152.1620 C   0  0  0  0  0  0  0  0  0  0  0  0
  147.0270  142.1680  152.2820 C   0  0  0  0  0  3  0  0  0  0  0  0
  147.9550  141.9400  153.2950 C   0  0  0  0  0  3  0  0  0  0  0  0
  147.7540  140.8970  154.2060 C   0  0  0  0  0  0  0  0  0  0  0  0
  146.6260  140.0740  154.1120 C   0  0  0  0  0  0  0  0  0  0  0  0
  145.7030  140.3170  153.0790 C   0  0  0  0  0  3  0  0  0  0  0  0
  148.6970  140.7160  155.1830 O   0  0  0  0  0  0  0  0  0  0  0  0
  148.9260  139.8500  155.4590 H   0  0  0  0  0  0  0  0  0  0  0  0
  146.2710  139.0120  154.8940 O   0  0  0  0  0  0  0  0  0  0  0  0
  145.5630  137.9460  154.2820 C   0  0  0  0  0  1  0  0  0  0  0  0
  1  2  2  0  0  0  0
  1  5  1  0  0  0  0
  2 13  1  0  0  0  0
  3  4  1  0  0  0  0
  3  1  1  0  0  0  0
  5  6  1  0  0  0  0
  7  6  1  0  0  0  0
  7  8  1  0  0  0  0
  9  8  1  0  0  0  0
 10  9  1  0  0  0  0
 11 12  1  0  0  0  0
 12 10  1  0  0  0  0
 13 14  1  0  0  0  0
 14 15  2  0  0  0  0
 14 19  1  0  0  0  0
 15 16  1  0  0  0  0
 16 17  2  0  0  0  0
 17 20  1  0  0  0  0
 18 17  1  0  0  0  0
 18 22  1  0  0  0  0
 19 18  2  0  0  0  0
 20 21  1  0  0  0  0
 23 22  1  0  0  0  0
M  END
>  <MODEL>
9

>  <REMARK>
 VINA RESULT:    -5.412      3.391      4.623
 INTER + INTRA:          -9.871
 INTER:                  -8.891
 INTRA:                  -0.979
 UNBOUND:                -0.979
  Name = CHEMBL76789
  14 active torsions:
  status: ('A' for Active; 'I' for Inactive)
    1  A    between atoms: C_1  and  C_2
    2  A    between atoms: C_2  and  C_3
    3  A    between atoms: C_3  and  C_4
    4  A    between atoms: C_4  and  C_5
    5  A    between atoms: C_5  and  C_6
    6  A    between atoms: C_6  and  C_7
    7  A    between atoms: C_7  and  C_8
    8  A    between atoms: C_8  and  C_9
    9  A    between atoms: C_9  and  S_10
   10  A    between atoms: N_11  and  C_12
   11  A    between atoms: C_12  and  C_13
   12  A    between atoms: C_16  and  O_17
   13  A    between atoms: C_18  and  O_19
   14  A    between atoms: O_19  and  C_20
                            x       y       z     vdW  Elec       q    Type
                         _______ _______ _______ _____ _____    ______ ____

>  <TORSDO>
F 12

>  <SCORE>
-5.412

>  <RMSD_LB>
3.391

>  <RMSD_UB>
4.623

$$$$
