CHEMBL80847
 OpenBabel10162523533D

 29 29  0  0  0  0  0  0  0  0999 V2000
  138.2780  137.6020  154.6260 N   0  0  0  0  0  0  0  0  0  0  0  0
  137.2160  137.8230  155.4720 C   0  0  0  0  0  0  0  0  0  0  0  0
  136.9250  138.9330  155.8840 O   0  0  0  0  0  0  0  0  0  0  0  0
  138.4640  136.6880  154.3090 H   0  0  0  0  0  0  0  0  0  0  0  0
  139.1310  138.6970  154.1920 C   0  0  0  0  0  2  0  0  0  0  0  0
  142.7820  137.8380  153.3730 C   0  0  0  0  0  0  0  0  0  0  0  0
  141.6330  138.2780  154.0460 C   0  0  0  0  0  3  0  0  0  0  0  0
  140.3640  138.2420  153.4380 C   0  0  0  0  0  0  0  0  0  0  0  0
  140.2710  137.7570  152.1270 C   0  0  0  0  0  3  0  0  0  0  0  0
  141.4150  137.3280  151.4350 C   0  0  0  0  0  3  0  0  0  0  0  0
  142.6600  137.3740  152.0610 C   0  0  0  0  0  0  0  0  0  0  0  0
  144.6540  139.1020  154.1090 C   0  0  0  0  0  1  0  0  0  0  0  0
  144.0400  137.8330  153.9170 O   0  0  0  0  0  0  0  0  0  0  0  0
  143.7890  136.9650  151.3970 O   0  0  0  0  0  0  0  0  0  0  0  0
  143.7720  136.1840  150.8790 H   0  0  0  0  0  0  0  0  0  0  0  0
  136.4500  136.5680  155.8610 C   0  0  0  0  0  2  0  0  0  0  0  0
  135.8520  135.9240  154.6090 C   0  0  0  0  0  2  0  0  0  0  0  0
  134.9340  134.7600  154.9470 C   0  0  0  0  0  2  0  0  0  0  0  0
  134.5480  134.0150  153.6740 C   0  0  0  0  0  2  0  0  0  0  0  0
  135.6490  134.1470  152.6340 C   0  0  0  0  0  2  0  0  0  0  0  0
  135.0530  134.1460  151.2360 C   0  0  0  0  0  2  0  0  0  0  0  0
  133.8550  133.2130  151.1810 C   0  0  0  0  0  2  0  0  0  0  0  0
  132.8820  133.6700  150.1060 C   0  0  0  0  0  2  0  0  0  0  0  0
  133.3270  133.1620  148.7410 C   0  0  0  0  0  2  0  0  0  0  0  0
  132.4780  133.7860  147.6420 C   0  0  0  0  0  2  0  0  0  0  0  0
  133.2010  134.8930  147.0340 N   0  0  0  0  0  4  0  0  0  0  0  0
  133.5750  135.4980  147.7650 H   0  0  0  0  0  0  0  0  0  0  0  0
  132.5670  135.4280  146.4400 H   0  0  0  0  0  0  0  0  0  0  0  0
  133.9690  134.5290  146.4690 H   0  0  0  0  0  0  0  0  0  0  0  0
  1  2  1  0  0  0  0
  2 16  1  0  0  0  0
  2  3  2  0  0  0  0
  4  1  1  0  0  0  0
  5  1  1  0  0  0  0
  6 13  1  0  0  0  0
  6  7  1  0  0  0  0
  8  7  2  0  0  0  0
  8  5  1  0  0  0  0
  9  8  1  0  0  0  0
 10 11  1  0  0  0  0
 10  9  2  0  0  0  0
 11  6  2  0  0  0  0
 13 12  1  0  0  0  0
 14 11  1  0  0  0  0
 15 14  1  0  0  0  0
 17 18  1  0  0  0  0
 17 16  1  0  0  0  0
 19 18  1  0  0  0  0
 20 19  1  0  0  0  0
 21 20  1  0  0  0  0
 22 21  1  0  0  0  0
 23 22  1  0  0  0  0
 24 23  1  0  0  0  0
 25 24  1  0  0  0  0
 26 25  1  0  0  0  0
 26 27  1  0  0  0  0
 28 26  1  0  0  0  0
 29 26  1  0  0  0  0
M  END
>  <MODEL>
1

>  <REMARK>
 VINA RESULT:    -6.236      0.000      0.000
 INTER + INTRA:         -12.261
 INTER:                 -11.508
 INTRA:                  -0.754
 UNBOUND:                -0.921
  Name = CHEMBL80847
  16 active torsions:
  status: ('A' for Active; 'I' for Inactive)
    1  A    between atoms: C_1  and  O_2
    2  A    between atoms: O_2  and  C_3
    3  A    between atoms: C_5  and  C_6
    4  A    between atoms: C_6  and  N_7
    5  A    between atoms: C_8  and  C_10
    6  A    between atoms: C_10  and  C_11
    7  A    between atoms: C_11  and  C_12
    8  A    between atoms: C_12  and  C_13
    9  A    between atoms: C_13  and  C_14
   10  A    between atoms: C_14  and  C_15
   11  A    between atoms: C_15  and  C_16
   12  A    between atoms: C_16  and  C_17
   13  A    between atoms: C_17  and  C_18
   14  A    between atoms: C_18  and  C_19
   15  A    between atoms: C_19  and  N_20
   16  A    between atoms: C_23  and  O_24
                            x       y       z     vdW  Elec       q    Type
                         _______ _______ _______ _____ _____    ______ ____

>  <TORSDO>
F 15

>  <SCORE>
-6.236

>  <RMSD_LB>
0.000

>  <RMSD_UB>
0.000

$$$$
CHEMBL80847
 OpenBabel10162523533D

 29 29  0  0  0  0  0  0  0  0999 V2000
  138.7340  136.7560  150.4100 N   0  0  0  0  0  0  0  0  0  0  0  0
  137.5300  137.2530  149.9670 C   0  0  0  0  0  0  0  0  0  0  0  0
  137.3780  138.4210  149.6510 O   0  0  0  0  0  0  0  0  0  0  0  0
  138.8100  135.8010  150.6400 H   0  0  0  0  0  0  0  0  0  0  0  0
  139.8980  137.6190  150.5420 C   0  0  0  0  0  2  0  0  0  0  0  0
  139.7330  138.5580  154.2610 C   0  0  0  0  0  0  0  0  0  0  0  0
  139.3780  138.3470  152.9200 C   0  0  0  0  0  3  0  0  0  0  0  0
  140.3080  137.8660  151.9800 C   0  0  0  0  0  0  0  0  0  0  0  0
  141.6140  137.6050  152.4130 C   0  0  0  0  0  3  0  0  0  0  0  0
  141.9880  137.8260  153.7480 C   0  0  0  0  0  3  0  0  0  0  0  0
  141.0470  138.3030  154.6600 C   0  0  0  0  0  0  0  0  0  0  0  0
  137.6360  138.3110  155.3500 C   0  0  0  0  0  1  0  0  0  0  0  0
  138.8690  139.0090  155.2250 O   0  0  0  0  0  0  0  0  0  0  0  0
  141.3970  138.5320  155.9660 O   0  0  0  0  0  0  0  0  0  0  0  0
  140.7330  138.6490  156.6170 H   0  0  0  0  0  0  0  0  0  0  0  0
  136.4060  136.2310  149.9230 C   0  0  0  0  0  2  0  0  0  0  0  0
  135.9110  135.9520  151.3440 C   0  0  0  0  0  2  0  0  0  0  0  0
  135.8600  134.4630  151.6510 C   0  0  0  0  0  2  0  0  0  0  0  0
  134.4540  134.0700  152.0870 C   0  0  0  0  0  2  0  0  0  0  0  0
  133.7950  133.2070  151.0230 C   0  0  0  0  0  2  0  0  0  0  0  0
  132.6310  133.9500  150.3890 C   0  0  0  0  0  2  0  0  0  0  0  0
  132.7380  133.8900  148.8730 C   0  0  0  0  0  2  0  0  0  0  0  0
  133.8800  132.9750  148.4630 C   0  0  0  0  0  2  0  0  0  0  0  0
  134.8500  133.7150  147.5520 C   0  0  0  0  0  2  0  0  0  0  0  0
  134.4510  133.5310  146.0950 C   0  0  0  0  0  2  0  0  0  0  0  0
  133.9530  134.7890  145.5600 N   0  0  0  0  0  4  0  0  0  0  0  0
  134.7090  135.4740  145.5410 H   0  0  0  0  0  0  0  0  0  0  0  0
  133.1960  135.1340  146.1510 H   0  0  0  0  0  0  0  0  0  0  0  0
  133.6040  134.6420  144.6130 H   0  0  0  0  0  0  0  0  0  0  0  0
  1  5  1  0  0  0  0
  1  4  1  0  0  0  0
  2  1  1  0  0  0  0
  3  2  2  0  0  0  0
  5  8  1  0  0  0  0
  6 11  1  0  0  0  0
  6 13  1  0  0  0  0
  7  6  2  0  0  0  0
  8  9  2  0  0  0  0
  8  7  1  0  0  0  0
  9 10  1  0  0  0  0
 10 11  2  0  0  0  0
 11 14  1  0  0  0  0
 13 12  1  0  0  0  0
 14 15  1  0  0  0  0
 16  2  1  0  0  0  0
 16 17  1  0  0  0  0
 17 18  1  0  0  0  0
 18 19  1  0  0  0  0
 20 19  1  0  0  0  0
 21 20  1  0  0  0  0
 22 21  1  0  0  0  0
 23 22  1  0  0  0  0
 24 23  1  0  0  0  0
 25 24  1  0  0  0  0
 26 25  1  0  0  0  0
 26 28  1  0  0  0  0
 27 26  1  0  0  0  0
 29 26  1  0  0  0  0
M  END
>  <MODEL>
2

>  <REMARK>
 VINA RESULT:    -6.233      2.254      3.817
 INTER + INTRA:         -12.256
 INTER:                 -10.838
 INTRA:                  -1.418
 UNBOUND:                -0.921
  Name = CHEMBL80847
  16 active torsions:
  status: ('A' for Active; 'I' for Inactive)
    1  A    between atoms: C_1  and  O_2
    2  A    between atoms: O_2  and  C_3
    3  A    between atoms: C_5  and  C_6
    4  A    between atoms: C_6  and  N_7
    5  A    between atoms: C_8  and  C_10
    6  A    between atoms: C_10  and  C_11
    7  A    between atoms: C_11  and  C_12
    8  A    between atoms: C_12  and  C_13
    9  A    between atoms: C_13  and  C_14
   10  A    between atoms: C_14  and  C_15
   11  A    between atoms: C_15  and  C_16
   12  A    between atoms: C_16  and  C_17
   13  A    between atoms: C_17  and  C_18
   14  A    between atoms: C_18  and  C_19
   15  A    between atoms: C_19  and  N_20
   16  A    between atoms: C_23  and  O_24
                            x       y       z     vdW  Elec       q    Type
                         _______ _______ _______ _____ _____    ______ ____

>  <TORSDO>
F 15

>  <SCORE>
-6.233

>  <RMSD_LB>
2.254

>  <RMSD_UB>
3.817

$$$$
CHEMBL80847
 OpenBabel10162523533D

 29 29  0  0  0  0  0  0  0  0999 V2000
  138.2020  138.0430  154.5170 N   0  0  0  0  0  0  0  0  0  0  0  0
  139.4020  138.6140  154.1590 C   0  0  0  0  0  0  0  0  0  0  0  0
  140.2370  138.9560  154.9790 O   0  0  0  0  0  0  0  0  0  0  0  0
  137.5660  137.7710  153.8160 H   0  0  0  0  0  0  0  0  0  0  0  0
  137.8590  137.8350  155.9150 C   0  0  0  0  0  2  0  0  0  0  0  0
  135.4620  135.3860  157.6430 C   0  0  0  0  0  0  0  0  0  0  0  0
  136.4450  136.3630  157.4260 C   0  0  0  0  0  3  0  0  0  0  0  0
  136.8140  136.7590  156.1280 C   0  0  0  0  0  0  0  0  0  0  0  0
  136.1770  136.1460  155.0410 C   0  0  0  0  0  3  0  0  0  0  0  0
  135.2030  135.1560  155.2430 C   0  0  0  0  0  3  0  0  0  0  0  0
  134.8550  134.7810  156.5390 C   0  0  0  0  0  0  0  0  0  0  0  0
  136.0700  134.6460  159.8170 C   0  0  0  0  0  1  0  0  0  0  0  0
  135.0490  134.9700  158.8820 O   0  0  0  0  0  0  0  0  0  0  0  0
  133.9100  133.8100  156.7540 O   0  0  0  0  0  0  0  0  0  0  0  0
  133.1860  133.9780  157.3230 H   0  0  0  0  0  0  0  0  0  0  0  0
  139.5890  138.7970  152.6610 C   0  0  0  0  0  2  0  0  0  0  0  0
  138.8150  137.7110  151.9110 C   0  0  0  0  0  2  0  0  0  0  0  0
  138.3440  138.1830  150.5440 C   0  0  0  0  0  2  0  0  0  0  0  0
  137.1180  137.3870  150.1130 C   0  0  0  0  0  2  0  0  0  0  0  0
  136.6760  136.4550  151.2300 C   0  0  0  0  0  2  0  0  0  0  0  0
  136.6250  135.0210  150.7290 C   0  0  0  0  0  2  0  0  0  0  0  0
  135.8780  134.1480  151.7250 C   0  0  0  0  0  2  0  0  0  0  0  0
  134.3870  134.4360  151.6610 C   0  0  0  0  0  2  0  0  0  0  0  0
  133.6620  133.3130  150.9350 C   0  0  0  0  0  2  0  0  0  0  0  0
  133.2030  133.7810  149.5610 C   0  0  0  0  0  2  0  0  0  0  0  0
  133.8550  132.9880  148.5300 N   0  0  0  0  0  4  0  0  0  0  0  0
  134.5500  132.3770  148.9590 H   0  0  0  0  0  0  0  0  0  0  0  0
  134.3140  133.6090  147.8630 H   0  0  0  0  0  0  0  0  0  0  0  0
  133.1590  132.4220  148.0440 H   0  0  0  0  0  0  0  0  0  0  0  0
  1  5  1  0  0  0  0
  2  1  1  0  0  0  0
  2  3  2  0  0  0  0
  4  1  1  0  0  0  0
  5  8  1  0  0  0  0
  6 13  1  0  0  0  0
  7  6  1  0  0  0  0
  8  7  2  0  0  0  0
  9 10  2  0  0  0  0
  9  8  1  0  0  0  0
 10 11  1  0  0  0  0
 11 14  1  0  0  0  0
 11  6  2  0  0  0  0
 13 12  1  0  0  0  0
 14 15  1  0  0  0  0
 16  2  1  0  0  0  0
 17 16  1  0  0  0  0
 18 17  1  0  0  0  0
 19 18  1  0  0  0  0
 19 20  1  0  0  0  0
 21 20  1  0  0  0  0
 21 22  1  0  0  0  0
 23 22  1  0  0  0  0
 24 23  1  0  0  0  0
 25 24  1  0  0  0  0
 26 27  1  0  0  0  0
 26 25  1  0  0  0  0
 28 26  1  0  0  0  0
 29 26  1  0  0  0  0
M  END
>  <MODEL>
3

>  <REMARK>
 VINA RESULT:    -6.102      2.517      6.025
 INTER + INTRA:         -12.018
 INTER:                 -10.473
 INTRA:                  -1.545
 UNBOUND:                -0.921
  Name = CHEMBL80847
  16 active torsions:
  status: ('A' for Active; 'I' for Inactive)
    1  A    between atoms: C_1  and  O_2
    2  A    between atoms: O_2  and  C_3
    3  A    between atoms: C_5  and  C_6
    4  A    between atoms: C_6  and  N_7
    5  A    between atoms: C_8  and  C_10
    6  A    between atoms: C_10  and  C_11
    7  A    between atoms: C_11  and  C_12
    8  A    between atoms: C_12  and  C_13
    9  A    between atoms: C_13  and  C_14
   10  A    between atoms: C_14  and  C_15
   11  A    between atoms: C_15  and  C_16
   12  A    between atoms: C_16  and  C_17
   13  A    between atoms: C_17  and  C_18
   14  A    between atoms: C_18  and  C_19
   15  A    between atoms: C_19  and  N_20
   16  A    between atoms: C_23  and  O_24
                            x       y       z     vdW  Elec       q    Type
                         _______ _______ _______ _____ _____    ______ ____

>  <TORSDO>
F 15

>  <SCORE>
-6.102

>  <RMSD_LB>
2.517

>  <RMSD_UB>
6.025

$$$$
CHEMBL80847
 OpenBabel10162523533D

 29 29  0  0  0  0  0  0  0  0999 V2000
  145.4350  141.4570  149.7360 N   0  0  0  0  0  0  0  0  0  0  0  0
  144.3800  140.5740  149.6900 C   0  0  0  0  0  0  0  0  0  0  0  0
  143.5200  140.5330  150.5540 O   0  0  0  0  0  0  0  0  0  0  0  0
  146.0960  141.4610  149.0060 H   0  0  0  0  0  0  0  0  0  0  0  0
  145.5870  142.3850  150.8450 C   0  0  0  0  0  2  0  0  0  0  0  0
  146.6630  140.4200  153.9620 C   0  0  0  0  0  0  0  0  0  0  0  0
  145.8880  140.9530  152.9220 C   0  0  0  0  0  3  0  0  0  0  0  0
  146.4340  141.8410  151.9770 C   0  0  0  0  0  0  0  0  0  0  0  0
  147.7850  142.1930  152.1020 C   0  0  0  0  0  3  0  0  0  0  0  0
  148.5690  141.6800  153.1470 C   0  0  0  0  0  3  0  0  0  0  0  0
  148.0030  140.8020  154.0700 C   0  0  0  0  0  0  0  0  0  0  0  0
  145.5930  138.3470  154.4100 C   0  0  0  0  0  1  0  0  0  0  0  0
  146.1920  139.5400  154.9010 O   0  0  0  0  0  0  0  0  0  0  0  0
  148.7530  140.2970  155.1010 O   0  0  0  0  0  0  0  0  0  0  0  0
  149.6880  140.3050  155.0500 H   0  0  0  0  0  0  0  0  0  0  0  0
  144.3880  139.6460  148.4860 C   0  0  0  0  0  2  0  0  0  0  0  0
  143.0050  139.0150  148.3150 C   0  0  0  0  0  2  0  0  0  0  0  0
  143.0890  137.5370  147.9670 C   0  0  0  0  0  2  0  0  0  0  0  0
  143.5820  136.7460  149.1730 C   0  0  0  0  0  2  0  0  0  0  0  0
  142.5030  136.6890  150.2420 C   0  0  0  0  0  2  0  0  0  0  0  0
  143.0500  137.1880  151.5680 C   0  0  0  0  0  2  0  0  0  0  0  0
  142.0100  138.0450  152.2730 C   0  0  0  0  0  2  0  0  0  0  0  0
  140.6310  137.4220  152.1270 C   0  0  0  0  0  2  0  0  0  0  0  0
  139.5670  138.5080  152.0470 C   0  0  0  0  0  2  0  0  0  0  0  0
  139.9530  139.5530  151.0100 C   0  0  0  0  0  2  0  0  0  0  0  0
  139.2040  140.7770  151.2460 N   0  0  0  0  0  4  0  0  0  0  0  0
  139.2340  141.3610  150.4100 H   0  0  0  0  0  0  0  0  0  0  0  0
  139.6180  141.2840  152.0290 H   0  0  0  0  0  0  0  0  0  0  0  0
  138.2340  140.5470  151.4650 H   0  0  0  0  0  0  0  0  0  0  0  0
  1  5  1  0  0  0  0
  2  1  1  0  0  0  0
  2  3  2  0  0  0  0
  4  1  1  0  0  0  0
  5  8  1  0  0  0  0
  6 11  1  0  0  0  0
  6 13  1  0  0  0  0
  7  6  2  0  0  0  0
  8  9  2  0  0  0  0
  8  7  1  0  0  0  0
  9 10  1  0  0  0  0
 10 11  2  0  0  0  0
 11 14  1  0  0  0  0
 12 13  1  0  0  0  0
 15 14  1  0  0  0  0
 16  2  1  0  0  0  0
 17 16  1  0  0  0  0
 18 17  1  0  0  0  0
 18 19  1  0  0  0  0
 19 20  1  0  0  0  0
 20 21  1  0  0  0  0
 21 22  1  0  0  0  0
 23 22  1  0  0  0  0
 24 23  1  0  0  0  0
 25 26  1  0  0  0  0
 25 24  1  0  0  0  0
 26 29  1  0  0  0  0
 26 28  1  0  0  0  0
 27 26  1  0  0  0  0
M  END
>  <MODEL>
4

>  <REMARK>
 VINA RESULT:    -6.012      5.650      8.430
 INTER + INTRA:         -11.853
 INTER:                 -10.338
 INTRA:                  -1.515
 UNBOUND:                -0.921
  Name = CHEMBL80847
  16 active torsions:
  status: ('A' for Active; 'I' for Inactive)
    1  A    between atoms: C_1  and  O_2
    2  A    between atoms: O_2  and  C_3
    3  A    between atoms: C_5  and  C_6
    4  A    between atoms: C_6  and  N_7
    5  A    between atoms: C_8  and  C_10
    6  A    between atoms: C_10  and  C_11
    7  A    between atoms: C_11  and  C_12
    8  A    between atoms: C_12  and  C_13
    9  A    between atoms: C_13  and  C_14
   10  A    between atoms: C_14  and  C_15
   11  A    between atoms: C_15  and  C_16
   12  A    between atoms: C_16  and  C_17
   13  A    between atoms: C_17  and  C_18
   14  A    between atoms: C_18  and  C_19
   15  A    between atoms: C_19  and  N_20
   16  A    between atoms: C_23  and  O_24
                            x       y       z     vdW  Elec       q    Type
                         _______ _______ _______ _____ _____    ______ ____

>  <TORSDO>
F 15

>  <SCORE>
-6.012

>  <RMSD_LB>
5.650

>  <RMSD_UB>
8.430

$$$$
CHEMBL80847
 OpenBabel10162523533D

 29 29  0  0  0  0  0  0  0  0999 V2000
  143.1310  137.0310  150.8370 N   0  0  0  0  0  0  0  0  0  0  0  0
  144.0360  136.1570  150.2800 C   0  0  0  0  0  0  0  0  0  0  0  0
  143.7230  135.3430  149.4280 O   0  0  0  0  0  0  0  0  0  0  0  0
  143.4350  137.6810  151.5120 H   0  0  0  0  0  0  0  0  0  0  0  0
  141.7310  137.0120  150.4430 C   0  0  0  0  0  2  0  0  0  0  0  0
  140.4500  138.6480  153.6710 C   0  0  0  0  0  0  0  0  0  0  0  0
  141.3010  138.1280  152.6850 C   0  0  0  0  0  3  0  0  0  0  0  0
  140.7950  137.5440  151.5100 C   0  0  0  0  0  0  0  0  0  0  0  0
  139.4050  137.4840  151.3450 C   0  0  0  0  0  3  0  0  0  0  0  0
  138.5410  137.9850  152.3310 C   0  0  0  0  0  3  0  0  0  0  0  0
  139.0680  138.5600  153.4870 C   0  0  0  0  0  0  0  0  0  0  0  0
  142.2920  139.3520  154.9970 C   0  0  0  0  0  1  0  0  0  0  0  0
  140.8840  139.2430  154.8280 O   0  0  0  0  0  0  0  0  0  0  0  0
  138.2390  139.0490  154.4640 O   0  0  0  0  0  0  0  0  0  0  0  0
  138.4290  138.8860  155.3660 H   0  0  0  0  0  0  0  0  0  0  0  0
  145.4490  136.2810  150.8290 C   0  0  0  0  0  2  0  0  0  0  0  0
  145.9100  137.7360  150.7320 C   0  0  0  0  0  2  0  0  0  0  0  0
  147.2020  137.9790  151.4960 C   0  0  0  0  0  2  0  0  0  0  0  0
  147.0930  139.2660  152.3060 C   0  0  0  0  0  2  0  0  0  0  0  0
  145.7880  139.2880  153.0850 C   0  0  0  0  0  2  0  0  0  0  0  0
  145.0280  140.5730  152.8010 C   0  0  0  0  0  2  0  0  0  0  0  0
  146.0040  141.7090  152.5390 C   0  0  0  0  0  2  0  0  0  0  0  0
  145.5880  142.4850  151.3010 C   0  0  0  0  0  2  0  0  0  0  0  0
  146.6850  142.4280  150.2480 C   0  0  0  0  0  2  0  0  0  0  0  0
  146.3670  141.3610  149.2090 C   0  0  0  0  0  2  0  0  0  0  0  0
  144.9600  140.9990  149.2940 N   0  0  0  0  0  4  0  0  0  0  0  0
  144.6890  140.9160  150.2730 H   0  0  0  0  0  0  0  0  0  0  0  0
  144.8100  140.1060  148.8230 H   0  0  0  0  0  0  0  0  0  0  0  0
  144.3960  141.7190  148.8440 H   0  0  0  0  0  0  0  0  0  0  0  0
  1  4  1  0  0  0  0
  2 16  1  0  0  0  0
  2  1  1  0  0  0  0
  3  2  2  0  0  0  0
  5  1  1  0  0  0  0
  5  8  1  0  0  0  0
  6 13  1  0  0  0  0
  7  6  2  0  0  0  0
  8  7  1  0  0  0  0
  9  8  2  0  0  0  0
  9 10  1  0  0  0  0
 10 11  2  0  0  0  0
 11  6  1  0  0  0  0
 11 14  1  0  0  0  0
 13 12  1  0  0  0  0
 14 15  1  0  0  0  0
 17 16  1  0  0  0  0
 17 18  1  0  0  0  0
 18 19  1  0  0  0  0
 19 20  1  0  0  0  0
 21 20  1  0  0  0  0
 22 21  1  0  0  0  0
 23 22  1  0  0  0  0
 24 23  1  0  0  0  0
 25 26  1  0  0  0  0
 25 24  1  0  0  0  0
 26 27  1  0  0  0  0
 28 26  1  0  0  0  0
 29 26  1  0  0  0  0
M  END
>  <MODEL>
5

>  <REMARK>
 VINA RESULT:    -5.931      4.941      9.922
 INTER + INTRA:         -11.706
 INTER:                 -10.153
 INTRA:                  -1.554
 UNBOUND:                -0.921
  Name = CHEMBL80847
  16 active torsions:
  status: ('A' for Active; 'I' for Inactive)
    1  A    between atoms: C_1  and  O_2
    2  A    between atoms: O_2  and  C_3
    3  A    between atoms: C_5  and  C_6
    4  A    between atoms: C_6  and  N_7
    5  A    between atoms: C_8  and  C_10
    6  A    between atoms: C_10  and  C_11
    7  A    between atoms: C_11  and  C_12
    8  A    between atoms: C_12  and  C_13
    9  A    between atoms: C_13  and  C_14
   10  A    between atoms: C_14  and  C_15
   11  A    between atoms: C_15  and  C_16
   12  A    between atoms: C_16  and  C_17
   13  A    between atoms: C_17  and  C_18
   14  A    between atoms: C_18  and  C_19
   15  A    between atoms: C_19  and  N_20
   16  A    between atoms: C_23  and  O_24
                            x       y       z     vdW  Elec       q    Type
                         _______ _______ _______ _____ _____    ______ ____

>  <TORSDO>
F 15

>  <SCORE>
-5.931

>  <RMSD_LB>
4.941

>  <RMSD_UB>
9.922

$$$$
CHEMBL80847
 OpenBabel10162523533D

 29 29  0  0  0  0  0  0  0  0999 V2000
  141.1080  138.2750  150.2630 N   0  0  0  0  0  0  0  0  0  0  0  0
  141.4160  139.5040  149.7260 C   0  0  0  0  0  0  0  0  0  0  0  0
  140.5950  140.3990  149.6240 O   0  0  0  0  0  0  0  0  0  0  0  0
  141.8100  137.5880  150.3380 H   0  0  0  0  0  0  0  0  0  0  0  0
  139.7610  137.9740  150.7240 C   0  0  0  0  0  2  0  0  0  0  0  0
  138.2000  137.8590  154.2290 C   0  0  0  0  0  0  0  0  0  0  0  0
  138.3570  137.8230  152.8350 C   0  0  0  0  0  3  0  0  0  0  0  0
  139.6070  138.0450  152.2290 C   0  0  0  0  0  0  0  0  0  0  0  0
  140.7060  138.3130  153.0560 C   0  0  0  0  0  3  0  0  0  0  0  0
  140.5610  138.3690  154.4510 C   0  0  0  0  0  3  0  0  0  0  0  0
  139.3110  138.1450  155.0260 C   0  0  0  0  0  0  0  0  0  0  0  0
  136.4290  136.3500  154.7080 C   0  0  0  0  0  1  0  0  0  0  0  0
  137.0130  137.6360  154.8770 O   0  0  0  0  0  0  0  0  0  0  0  0
  139.1500  138.2020  156.3880 O   0  0  0  0  0  0  0  0  0  0  0  0
  139.7270  137.7240  156.9490 H   0  0  0  0  0  0  0  0  0  0  0  0
  142.8560  139.6420  149.2580 C   0  0  0  0  0  2  0  0  0  0  0  0
  143.6670  140.3990  150.3110 C   0  0  0  0  0  2  0  0  0  0  0  0
  145.1560  140.3880  150.0030 C   0  0  0  0  0  2  0  0  0  0  0  0
  145.9530  140.6380  151.2790 C   0  0  0  0  0  2  0  0  0  0  0  0
  145.5630  141.9750  151.8890 C   0  0  0  0  0  2  0  0  0  0  0  0
  146.4450  142.2820  153.0870 C   0  0  0  0  0  2  0  0  0  0  0  0
  147.8620  141.7940  152.8320 C   0  0  0  0  0  2  0  0  0  0  0  0
  148.5370  141.4290  154.1440 C   0  0  0  0  0  2  0  0  0  0  0  0
  148.2290  139.9850  154.5130 C   0  0  0  0  0  2  0  0  0  0  0  0
  148.3640  139.0860  153.2910 C   0  0  0  0  0  2  0  0  0  0  0  0
  149.6180  138.3510  153.3600 N   0  0  0  0  0  4  0  0  0  0  0  0
  150.3970  138.9940  153.2210 H   0  0  0  0  0  0  0  0  0  0  0  0
  149.6330  137.6360  152.6320 H   0  0  0  0  0  0  0  0  0  0  0  0
  149.7030  137.9070  154.2740 H   0  0  0  0  0  0  0  0  0  0  0  0
  1  4  1  0  0  0  0
  1  5  1  0  0  0  0
  2  1  1  0  0  0  0
  3  2  2  0  0  0  0
  5  8  1  0  0  0  0
  6 13  1  0  0  0  0
  6 11  1  0  0  0  0
  7  6  2  0  0  0  0
  8  7  1  0  0  0  0
  8  9  2  0  0  0  0
  9 10  1  0  0  0  0
 10 11  2  0  0  0  0
 11 14  1  0  0  0  0
 12 13  1  0  0  0  0
 14 15  1  0  0  0  0
 16  2  1  0  0  0  0
 16 17  1  0  0  0  0
 18 17  1  0  0  0  0
 18 19  1  0  0  0  0
 19 20  1  0  0  0  0
 20 21  1  0  0  0  0
 22 21  1  0  0  0  0
 22 23  1  0  0  0  0
 23 24  1  0  0  0  0
 25 26  1  0  0  0  0
 25 24  1  0  0  0  0
 26 29  1  0  0  0  0
 27 26  1  0  0  0  0
 28 26  1  0  0  0  0
M  END
>  <MODEL>
6

>  <REMARK>
 VINA RESULT:    -5.862      4.302     10.830
 INTER + INTRA:         -11.581
 INTER:                 -10.659
 INTRA:                  -0.923
 UNBOUND:                -0.921
  Name = CHEMBL80847
  16 active torsions:
  status: ('A' for Active; 'I' for Inactive)
    1  A    between atoms: C_1  and  O_2
    2  A    between atoms: O_2  and  C_3
    3  A    between atoms: C_5  and  C_6
    4  A    between atoms: C_6  and  N_7
    5  A    between atoms: C_8  and  C_10
    6  A    between atoms: C_10  and  C_11
    7  A    between atoms: C_11  and  C_12
    8  A    between atoms: C_12  and  C_13
    9  A    between atoms: C_13  and  C_14
   10  A    between atoms: C_14  and  C_15
   11  A    between atoms: C_15  and  C_16
   12  A    between atoms: C_16  and  C_17
   13  A    between atoms: C_17  and  C_18
   14  A    between atoms: C_18  and  C_19
   15  A    between atoms: C_19  and  N_20
   16  A    between atoms: C_23  and  O_24
                            x       y       z     vdW  Elec       q    Type
                         _______ _______ _______ _____ _____    ______ ____

>  <TORSDO>
F 15

>  <SCORE>
-5.862

>  <RMSD_LB>
4.302

>  <RMSD_UB>
10.830

$$$$
CHEMBL80847
 OpenBabel10162523533D

 29 29  0  0  0  0  0  0  0  0999 V2000
  135.8500  133.2040  146.5270 N   0  0  0  0  0  0  0  0  0  0  0  0
  136.3050  132.1960  145.7080 C   0  0  0  0  0  0  0  0  0  0  0  0
  136.0290  131.0230  145.8950 O   0  0  0  0  0  0  0  0  0  0  0  0
  136.0890  134.1380  146.3260 H   0  0  0  0  0  0  0  0  0  0  0  0
  135.0220  132.9110  147.6870 C   0  0  0  0  0  2  0  0  0  0  0  0
  133.5690  135.5680  150.0440 C   0  0  0  0  0  0  0  0  0  0  0  0
  134.2610  134.4480  149.5600 C   0  0  0  0  0  3  0  0  0  0  0  0
  134.2470  134.1090  148.1950 C   0  0  0  0  0  0  0  0  0  0  0  0
  133.5130  134.9190  147.3180 C   0  0  0  0  0  3  0  0  0  0  0  0
  132.8030  136.0330  147.7910 C   0  0  0  0  0  3  0  0  0  0  0  0
  132.8330  136.3480  149.1490 C   0  0  0  0  0  0  0  0  0  0  0  0
  133.5560  134.9190  152.3300 C   0  0  0  0  0  1  0  0  0  0  0  0
  133.5580  135.9580  151.3590 O   0  0  0  0  0  0  0  0  0  0  0  0
  132.1390  137.4290  149.6290 O   0  0  0  0  0  0  0  0  0  0  0  0
  131.3490  137.7040  149.2080 H   0  0  0  0  0  0  0  0  0  0  0  0
  137.1900  132.6660  144.5650 C   0  0  0  0  0  2  0  0  0  0  0  0
  137.0560  131.7040  143.3830 C   0  0  0  0  0  2  0  0  0  0  0  0
  137.5460  132.3220  142.0830 C   0  0  0  0  0  2  0  0  0  0  0  0
  137.8780  133.7930  142.2990 C   0  0  0  0  0  2  0  0  0  0  0  0
  136.8890  134.6710  141.5490 C   0  0  0  0  0  2  0  0  0  0  0  0
  136.8370  136.0560  142.1730 C   0  0  0  0  0  2  0  0  0  0  0  0
  135.4340  136.3440  142.6840 C   0  0  0  0  0  2  0  0  0  0  0  0
  135.2700  135.8090  144.0970 C   0  0  0  0  0  2  0  0  0  0  0  0
  135.7650  136.8330  145.1100 C   0  0  0  0  0  2  0  0  0  0  0  0
  135.2330  138.2170  144.7670 C   0  0  0  0  0  2  0  0  0  0  0  0
  134.3650  138.6870  145.8360 N   0  0  0  0  0  4  0  0  0  0  0  0
  133.7990  137.9130  146.1810 H   0  0  0  0  0  0  0  0  0  0  0  0
  133.7550  139.4230  145.4800 H   0  0  0  0  0  0  0  0  0  0  0  0
  134.9340  139.0570  146.5980 H   0  0  0  0  0  0  0  0  0  0  0  0
  1  5  1  0  0  0  0
  2  3  2  0  0  0  0
  2  1  1  0  0  0  0
  4  1  1  0  0  0  0
  5  8  1  0  0  0  0
  6 13  1  0  0  0  0
  7  6  1  0  0  0  0
  8  7  2  0  0  0  0
  9 10  2  0  0  0  0
  9  8  1  0  0  0  0
 10 11  1  0  0  0  0
 11 14  1  0  0  0  0
 11  6  2  0  0  0  0
 13 12  1  0  0  0  0
 15 14  1  0  0  0  0
 16  2  1  0  0  0  0
 17 16  1  0  0  0  0
 18 19  1  0  0  0  0
 18 17  1  0  0  0  0
 20 21  1  0  0  0  0
 20 19  1  0  0  0  0
 21 22  1  0  0  0  0
 22 23  1  0  0  0  0
 23 24  1  0  0  0  0
 25 24  1  0  0  0  0
 25 26  1  0  0  0  0
 26 27  1  0  0  0  0
 26 29  1  0  0  0  0
 28 26  1  0  0  0  0
M  END
>  <MODEL>
7

>  <REMARK>
 VINA RESULT:    -5.770      6.750     10.122
 INTER + INTRA:         -11.413
 INTER:                  -9.776
 INTRA:                  -1.637
 UNBOUND:                -0.921
  Name = CHEMBL80847
  16 active torsions:
  status: ('A' for Active; 'I' for Inactive)
    1  A    between atoms: C_1  and  O_2
    2  A    between atoms: O_2  and  C_3
    3  A    between atoms: C_5  and  C_6
    4  A    between atoms: C_6  and  N_7
    5  A    between atoms: C_8  and  C_10
    6  A    between atoms: C_10  and  C_11
    7  A    between atoms: C_11  and  C_12
    8  A    between atoms: C_12  and  C_13
    9  A    between atoms: C_13  and  C_14
   10  A    between atoms: C_14  and  C_15
   11  A    between atoms: C_15  and  C_16
   12  A    between atoms: C_16  and  C_17
   13  A    between atoms: C_17  and  C_18
   14  A    between atoms: C_18  and  C_19
   15  A    between atoms: C_19  and  N_20
   16  A    between atoms: C_23  and  O_24
                            x       y       z     vdW  Elec       q    Type
                         _______ _______ _______ _____ _____    ______ ____

>  <TORSDO>
F 15

>  <SCORE>
-5.770

>  <RMSD_LB>
6.750

>  <RMSD_UB>
10.122

$$$$
CHEMBL80847
 OpenBabel10162523533D

 29 29  0  0  0  0  0  0  0  0999 V2000
  141.9790  137.0080  150.4840 N   0  0  0  0  0  0  0  0  0  0  0  0
  143.1720  137.5110  150.0170 C   0  0  0  0  0  0  0  0  0  0  0  0
  143.2420  138.5470  149.3780 O   0  0  0  0  0  0  0  0  0  0  0  0
  141.9760  136.1740  151.0080 H   0  0  0  0  0  0  0  0  0  0  0  0
  140.7220  137.6880  150.2140 C   0  0  0  0  0  2  0  0  0  0  0  0
  139.4120  138.3970  153.7520 C   0  0  0  0  0  0  0  0  0  0  0  0
  140.2560  138.2980  152.6350 C   0  0  0  0  0  3  0  0  0  0  0  0
  139.8030  137.7620  151.4160 C   0  0  0  0  0  0  0  0  0  0  0  0
  138.4770  137.3150  151.3400 C   0  0  0  0  0  3  0  0  0  0  0  0
  137.6270  137.3920  152.4530 C   0  0  0  0  0  3  0  0  0  0  0  0
  138.1000  137.9290  153.6500 C   0  0  0  0  0  0  0  0  0  0  0  0
  140.8980  138.3080  155.6030 C   0  0  0  0  0  1  0  0  0  0  0  0
  139.7900  138.9240  154.9600 O   0  0  0  0  0  0  0  0  0  0  0  0
  137.2840  138.0050  154.7500 O   0  0  0  0  0  0  0  0  0  0  0  0
  137.4180  138.6780  155.3880 H   0  0  0  0  0  0  0  0  0  0  0  0
  144.3870  136.6600  150.3520 C   0  0  0  0  0  2  0  0  0  0  0  0
  144.8240  136.9340  151.7920 C   0  0  0  0  0  2  0  0  0  0  0  0
  145.4660  138.3040  151.9450 C   0  0  0  0  0  2  0  0  0  0  0  0
  146.6900  138.4080  151.0430 C   0  0  0  0  0  2  0  0  0  0  0  0
  147.0980  139.8620  150.8740 C   0  0  0  0  0  2  0  0  0  0  0  0
  146.2060  140.5430  149.8490 C   0  0  0  0  0  2  0  0  0  0  0  0
  145.9650  141.9910  150.2470 C   0  0  0  0  0  2  0  0  0  0  0  0
  145.5090  142.0680  151.6950 C   0  0  0  0  0  2  0  0  0  0  0  0
  146.6820  142.4180  152.6000 C   0  0  0  0  0  2  0  0  0  0  0  0
  146.3890  141.9940  154.0330 C   0  0  0  0  0  2  0  0  0  0  0  0
  147.6210  141.5650  154.6780 N   0  0  0  0  0  4  0  0  0  0  0  0
  147.3990  141.0870  155.5510 H   0  0  0  0  0  0  0  0  0  0  0  0
  148.2040  142.3790  154.8740 H   0  0  0  0  0  0  0  0  0  0  0  0
  148.1240  140.9280  154.0610 H   0  0  0  0  0  0  0  0  0  0  0  0
  1  4  1  0  0  0  0
  2 16  1  0  0  0  0
  2  1  1  0  0  0  0
  3  2  2  0  0  0  0
  5  1  1  0  0  0  0
  5  8  1  0  0  0  0
  6 13  1  0  0  0  0
  7  6  2  0  0  0  0
  8  7  1  0  0  0  0
  9  8  2  0  0  0  0
  9 10  1  0  0  0  0
 10 11  2  0  0  0  0
 11  6  1  0  0  0  0
 11 14  1  0  0  0  0
 13 12  1  0  0  0  0
 14 15  1  0  0  0  0
 16 17  1  0  0  0  0
 17 18  1  0  0  0  0
 19 18  1  0  0  0  0
 20 19  1  0  0  0  0
 21 22  1  0  0  0  0
 21 20  1  0  0  0  0
 22 23  1  0  0  0  0
 23 24  1  0  0  0  0
 24 25  1  0  0  0  0
 25 26  1  0  0  0  0
 26 28  1  0  0  0  0
 26 27  1  0  0  0  0
 29 26  1  0  0  0  0
M  END
>  <MODEL>
8

>  <REMARK>
 VINA RESULT:    -5.428      4.403     10.258
 INTER + INTRA:         -10.792
 INTER:                  -9.870
 INTRA:                  -0.921
 UNBOUND:                -0.921
  Name = CHEMBL80847
  16 active torsions:
  status: ('A' for Active; 'I' for Inactive)
    1  A    between atoms: C_1  and  O_2
    2  A    between atoms: O_2  and  C_3
    3  A    between atoms: C_5  and  C_6
    4  A    between atoms: C_6  and  N_7
    5  A    between atoms: C_8  and  C_10
    6  A    between atoms: C_10  and  C_11
    7  A    between atoms: C_11  and  C_12
    8  A    between atoms: C_12  and  C_13
    9  A    between atoms: C_13  and  C_14
   10  A    between atoms: C_14  and  C_15
   11  A    between atoms: C_15  and  C_16
   12  A    between atoms: C_16  and  C_17
   13  A    between atoms: C_17  and  C_18
   14  A    between atoms: C_18  and  C_19
   15  A    between atoms: C_19  and  N_20
   16  A    between atoms: C_23  and  O_24
                            x       y       z     vdW  Elec       q    Type
                         _______ _______ _______ _____ _____    ______ ____

>  <TORSDO>
F 15

>  <SCORE>
-5.428

>  <RMSD_LB>
4.403

>  <RMSD_UB>
10.258

$$$$
CHEMBL80847
 OpenBabel10162523533D

 29 29  0  0  0  0  0  0  0  0999 V2000
  144.3920  140.8490  150.0830 N   0  0  0  0  0  0  0  0  0  0  0  0
  144.7970  140.1400  148.9760 C   0  0  0  0  0  0  0  0  0  0  0  0
  145.8830  140.3090  148.4490 O   0  0  0  0  0  0  0  0  0  0  0  0
  143.5100  140.6660  150.4810 H   0  0  0  0  0  0  0  0  0  0  0  0
  145.2480  141.8650  150.6760 C   0  0  0  0  0  2  0  0  0  0  0  0
  146.6570  139.5790  153.4190 C   0  0  0  0  0  0  0  0  0  0  0  0
  145.9710  140.0360  152.2840 C   0  0  0  0  0  3  0  0  0  0  0  0
  145.9710  141.3950  151.9220 C   0  0  0  0  0  0  0  0  0  0  0  0
  146.6730  142.2970  152.7330 C   0  0  0  0  0  3  0  0  0  0  0  0
  147.3500  141.8570  153.8810 C   0  0  0  0  0  3  0  0  0  0  0  0
  147.3350  140.5040  154.2170 C   0  0  0  0  0  0  0  0  0  0  0  0
  145.5330  137.4930  153.5960 C   0  0  0  0  0  1  0  0  0  0  0  0
  146.7070  138.2670  153.8130 O   0  0  0  0  0  0  0  0  0  0  0  0
  147.9840  140.0580  155.3400 O   0  0  0  0  0  0  0  0  0  0  0  0
  148.9200  140.0770  155.3790 H   0  0  0  0  0  0  0  0  0  0  0  0
  143.7710  139.1450  148.4570 C   0  0  0  0  0  2  0  0  0  0  0  0
  143.8270  137.8670  149.2960 C   0  0  0  0  0  2  0  0  0  0  0  0
  142.4400  137.3460  149.6390 C   0  0  0  0  0  2  0  0  0  0  0  0
  142.3590  137.0210  151.1260 C   0  0  0  0  0  2  0  0  0  0  0  0
  141.9610  138.2580  151.9140 C   0  0  0  0  0  2  0  0  0  0  0  0
  140.9260  137.9000  152.9670 C   0  0  0  0  0  2  0  0  0  0  0  0
  139.6790  138.7510  152.7840 C   0  0  0  0  0  2  0  0  0  0  0  0
  139.0010  138.4110  151.4670 C   0  0  0  0  0  2  0  0  0  0  0  0
  138.1140  137.1850  151.6300 C   0  0  0  0  0  2  0  0  0  0  0  0
  137.0370  137.1640  150.5550 C   0  0  0  0  0  2  0  0  0  0  0  0
  137.5170  137.8530  149.3670 N   0  0  0  0  0  4  0  0  0  0  0  0
  136.7280  138.2700  148.8730 H   0  0  0  0  0  0  0  0  0  0  0  0
  137.9890  137.1870  148.7540 H   0  0  0  0  0  0  0  0  0  0  0  0
  138.1720  138.5860  149.6400 H   0  0  0  0  0  0  0  0  0  0  0  0
  1  4  1  0  0  0  0
  1  5  1  0  0  0  0
  2  1  1  0  0  0  0
  3  2  2  0  0  0  0
  5  8  1  0  0  0  0
  6 13  1  0  0  0  0
  6 11  1  0  0  0  0
  7  6  2  0  0  0  0
  8  7  1  0  0  0  0
  8  9  2  0  0  0  0
  9 10  1  0  0  0  0
 10 11  2  0  0  0  0
 11 14  1  0  0  0  0
 12 13  1  0  0  0  0
 14 15  1  0  0  0  0
 16  2  1  0  0  0  0
 16 17  1  0  0  0  0
 17 18  1  0  0  0  0
 18 19  1  0  0  0  0
 19 20  1  0  0  0  0
 20 21  1  0  0  0  0
 22 21  1  0  0  0  0
 23 24  1  0  0  0  0
 23 22  1  0  0  0  0
 25 24  1  0  0  0  0
 26 29  1  0  0  0  0
 26 25  1  0  0  0  0
 27 26  1  0  0  0  0
 28 26  1  0  0  0  0
M  END
>  <MODEL>
9

>  <REMARK>
 VINA RESULT:    -5.311      4.386      7.660
 INTER + INTRA:         -10.579
 INTER:                  -9.300
 INTRA:                  -1.280
 UNBOUND:                -0.921
  Name = CHEMBL80847
  16 active torsions:
  status: ('A' for Active; 'I' for Inactive)
    1  A    between atoms: C_1  and  O_2
    2  A    between atoms: O_2  and  C_3
    3  A    between atoms: C_5  and  C_6
    4  A    between atoms: C_6  and  N_7
    5  A    between atoms: C_8  and  C_10
    6  A    between atoms: C_10  and  C_11
    7  A    between atoms: C_11  and  C_12
    8  A    between atoms: C_12  and  C_13
    9  A    between atoms: C_13  and  C_14
   10  A    between atoms: C_14  and  C_15
   11  A    between atoms: C_15  and  C_16
   12  A    between atoms: C_16  and  C_17
   13  A    between atoms: C_17  and  C_18
   14  A    between atoms: C_18  and  C_19
   15  A    between atoms: C_19  and  N_20
   16  A    between atoms: C_23  and  O_24
                            x       y       z     vdW  Elec       q    Type
                         _______ _______ _______ _____ _____    ______ ____

>  <TORSDO>
F 15

>  <SCORE>
-5.311

>  <RMSD_LB>
4.386

>  <RMSD_UB>
7.660

$$$$
