CHEMBL4554340
 OpenBabel10172500113D

 17 18  0  0  0  0  0  0  0  0999 V2000
  133.8950  134.4160  147.4720 C   0  0  0  0  0  0  0  0  0  0  0  0
  133.3440  134.9980  148.6160 C   0  0  0  0  0  3  0  0  0  0  0  0
  133.1910  134.2700  149.8120 C   0  0  0  0  0  0  0  0  0  0  0  0
  133.6680  132.9520  149.8590 C   0  0  0  0  0  3  0  0  0  0  0  0
  134.2410  132.3620  148.7280 C   0  0  0  0  0  3  0  0  0  0  0  0
  134.3420  133.0920  147.5440 C   0  0  0  0  0  0  0  0  0  0  0  0
  133.5650  136.3840  146.1710 C   0  0  0  0  0  1  0  0  0  0  0  0
  134.0340  135.0450  146.2630 O   0  0  0  0  0  0  0  0  0  0  0  0
  134.8900  132.5110  146.4300 O   0  0  0  0  0  0  0  0  0  0  0  0
  135.7330  132.1060  146.4790 H   0  0  0  0  0  0  0  0  0  0  0  0
  132.5530  134.9010  151.0370 C   0  0  0  0  0  2  0  0  0  0  0  0
  133.1350  134.3700  152.2740 N   0  0  0  0  0  4  0  0  0  0  0  0
  133.6610  133.5280  152.0430 H   0  0  0  0  0  0  0  0  0  0  0  0
  132.3540  134.1930  152.9070 H   0  0  0  0  0  0  0  0  0  0  0  0
  134.0310  135.2910  152.9710 C   0  0  0  0  0  3  0  0  0  0  0  0
  135.0100  134.6610  153.9290 C   0  0  0  0  0  2  0  0  0  0  0  0
  133.8990  135.5220  154.4490 C   0  0  0  0  0  2  0  0  0  0  0  0
  1  6  2  0  0  0  0
  1  2  1  0  0  0  0
  2  3  2  0  0  0  0
  3  4  1  0  0  0  0
  3 11  1  0  0  0  0
  5  4  2  0  0  0  0
  6  5  1  0  0  0  0
  7  8  1  0  0  0  0
  8  1  1  0  0  0  0
  9 10  1  0  0  0  0
  9  6  1  0  0  0  0
 11 12  1  0  0  0  0
 12 14  1  0  0  0  0
 12 15  1  0  0  0  0
 13 12  1  0  0  0  0
 15 16  1  0  0  0  0
 15 17  1  0  0  0  0
 16 17  1  0  0  0  0
M  END
>  <MODEL>
1

>  <REMARK>
 VINA RESULT:    -5.077      0.000      0.000
 INTER + INTRA:          -6.823
 INTER:                  -6.517
 INTRA:                  -0.306
 UNBOUND:                -0.410
  Name = CHEMBL4554340
  6 active torsions:
  status: ('A' for Active; 'I' for Inactive)
    1  A    between atoms: C_1  and  O_2
    2  A    between atoms: O_2  and  C_3
    3  A    between atoms: C_5  and  C_6
    4  A    between atoms: C_6  and  N_7
    5  A    between atoms: N_7  and  C_8
    6  A    between atoms: C_13  and  O_14
                            x       y       z     vdW  Elec       q    Type
                         _______ _______ _______ _____ _____    ______ ____

>  <TORSDO>
F 5

>  <SCORE>
-5.077

>  <RMSD_LB>
0.000

>  <RMSD_UB>
0.000

$$$$
CHEMBL4554340
 OpenBabel10172500113D

 17 18  0  0  0  0  0  0  0  0999 V2000
  146.1960  140.2970  153.9400 C   0  0  0  0  0  0  0  0  0  0  0  0
  145.5870  140.8820  152.8280 C   0  0  0  0  0  3  0  0  0  0  0  0
  146.2410  141.8700  152.0660 C   0  0  0  0  0  0  0  0  0  0  0  0
  147.5570  142.2160  152.4040 C   0  0  0  0  0  3  0  0  0  0  0  0
  148.1880  141.6240  153.5030 C   0  0  0  0  0  3  0  0  0  0  0  0
  147.5030  140.6780  154.2660 C   0  0  0  0  0  0  0  0  0  0  0  0
  145.2470  138.1240  154.1650 C   0  0  0  0  0  1  0  0  0  0  0  0
  145.6090  139.3650  154.7560 O   0  0  0  0  0  0  0  0  0  0  0  0
  148.1140  140.1070  155.3520 O   0  0  0  0  0  0  0  0  0  0  0  0
  148.1320  140.5600  156.1720 H   0  0  0  0  0  0  0  0  0  0  0  0
  145.5520  142.5290  150.8840 C   0  0  0  0  0  2  0  0  0  0  0  0
  145.2220  141.5470  149.8450 N   0  0  0  0  0  4  0  0  0  0  0  0
  144.5750  141.9820  149.1890 H   0  0  0  0  0  0  0  0  0  0  0  0
  144.8220  140.7410  150.3260 H   0  0  0  0  0  0  0  0  0  0  0  0
  146.3710  141.0500  149.0890 C   0  0  0  0  0  3  0  0  0  0  0  0
  146.0560  140.3800  147.7760 C   0  0  0  0  0  2  0  0  0  0  0  0
  146.5980  139.5750  148.9180 C   0  0  0  0  0  2  0  0  0  0  0  0
  1  6  1  0  0  0  0
  1  8  1  0  0  0  0
  2  1  2  0  0  0  0
  3  4  2  0  0  0  0
  3  2  1  0  0  0  0
  4  5  1  0  0  0  0
  5  6  2  0  0  0  0
  6  9  1  0  0  0  0
  7  8  1  0  0  0  0
  9 10  1  0  0  0  0
 11  3  1  0  0  0  0
 12 14  1  0  0  0  0
 12 11  1  0  0  0  0
 13 12  1  0  0  0  0
 15 12  1  0  0  0  0
 16 17  1  0  0  0  0
 16 15  1  0  0  0  0
 17 15  1  0  0  0  0
M  END
>  <MODEL>
2

>  <REMARK>
 VINA RESULT:    -5.069     13.906     15.353
 INTER + INTRA:          -6.812
 INTER:                  -6.354
 INTRA:                  -0.458
 UNBOUND:                -0.410
  Name = CHEMBL4554340
  6 active torsions:
  status: ('A' for Active; 'I' for Inactive)
    1  A    between atoms: C_1  and  O_2
    2  A    between atoms: O_2  and  C_3
    3  A    between atoms: C_5  and  C_6
    4  A    between atoms: C_6  and  N_7
    5  A    between atoms: N_7  and  C_8
    6  A    between atoms: C_13  and  O_14
                            x       y       z     vdW  Elec       q    Type
                         _______ _______ _______ _____ _____    ______ ____

>  <TORSDO>
F 5

>  <SCORE>
-5.069

>  <RMSD_LB>
13.906

>  <RMSD_UB>
15.353

$$$$
CHEMBL4554340
 OpenBabel10172500113D

 17 18  0  0  0  0  0  0  0  0999 V2000
  147.6840  139.6470  152.7630 C   0  0  0  0  0  0  0  0  0  0  0  0
  146.4090  139.5450  152.2030 C   0  0  0  0  0  3  0  0  0  0  0  0
  145.5690  140.6680  152.0760 C   0  0  0  0  0  0  0  0  0  0  0  0
  146.0620  141.9210  152.4670 C   0  0  0  0  0  3  0  0  0  0  0  0
  147.3450  142.0430  153.0110 C   0  0  0  0  0  3  0  0  0  0  0  0
  148.1410  140.9080  153.1630 C   0  0  0  0  0  0  0  0  0  0  0  0
  148.1250  137.5830  153.8690 C   0  0  0  0  0  1  0  0  0  0  0  0
  148.5400  138.5940  152.9600 O   0  0  0  0  0  0  0  0  0  0  0  0
  149.3930  141.0220  153.7090 O   0  0  0  0  0  0  0  0  0  0  0  0
  149.8260  141.8530  153.7190 H   0  0  0  0  0  0  0  0  0  0  0  0
  144.1680  140.5370  151.5040 C   0  0  0  0  0  2  0  0  0  0  0  0
  143.2690  139.8620  152.4460 N   0  0  0  0  0  4  0  0  0  0  0  0
  142.6760  140.5690  152.8810 H   0  0  0  0  0  0  0  0  0  0  0  0
  143.8650  139.3740  153.1150 H   0  0  0  0  0  0  0  0  0  0  0  0
  142.4040  138.8490  151.8450 C   0  0  0  0  0  3  0  0  0  0  0  0
  141.9350  137.7510  152.7660 C   0  0  0  0  0  2  0  0  0  0  0  0
  142.8890  137.4410  151.6520 C   0  0  0  0  0  2  0  0  0  0  0  0
  1  8  1  0  0  0  0
  1  6  1  0  0  0  0
  2  1  2  0  0  0  0
  3  2  1  0  0  0  0
  3  4  2  0  0  0  0
  4  5  1  0  0  0  0
  5  6  2  0  0  0  0
  6  9  1  0  0  0  0
  8  7  1  0  0  0  0
  9 10  1  0  0  0  0
 11  3  1  0  0  0  0
 11 12  1  0  0  0  0
 12 13  1  0  0  0  0
 12 14  1  0  0  0  0
 15 12  1  0  0  0  0
 15 16  1  0  0  0  0
 17 15  1  0  0  0  0
 17 16  1  0  0  0  0
M  END
>  <MODEL>
3

>  <REMARK>
 VINA RESULT:    -4.941     12.907     14.313
 INTER + INTRA:          -6.651
 INTER:                  -6.268
 INTRA:                  -0.383
 UNBOUND:                -0.410
  Name = CHEMBL4554340
  6 active torsions:
  status: ('A' for Active; 'I' for Inactive)
    1  A    between atoms: C_1  and  O_2
    2  A    between atoms: O_2  and  C_3
    3  A    between atoms: C_5  and  C_6
    4  A    between atoms: C_6  and  N_7
    5  A    between atoms: N_7  and  C_8
    6  A    between atoms: C_13  and  O_14
                            x       y       z     vdW  Elec       q    Type
                         _______ _______ _______ _____ _____    ______ ____

>  <TORSDO>
F 5

>  <SCORE>
-4.941

>  <RMSD_LB>
12.907

>  <RMSD_UB>
14.313

$$$$
CHEMBL4554340
 OpenBabel10172500113D

 17 18  0  0  0  0  0  0  0  0999 V2000
  134.2670  133.4030  147.0900 C   0  0  0  0  0  0  0  0  0  0  0  0
  133.6220  133.0780  148.2850 C   0  0  0  0  0  3  0  0  0  0  0  0
  133.0550  134.0700  149.1090 C   0  0  0  0  0  0  0  0  0  0  0  0
  133.0910  135.4030  148.6740 C   0  0  0  0  0  3  0  0  0  0  0  0
  133.7150  135.7410  147.4700 C   0  0  0  0  0  3  0  0  0  0  0  0
  134.3050  134.7440  146.6930 C   0  0  0  0  0  0  0  0  0  0  0  0
  136.1740  132.0480  146.6380 C   0  0  0  0  0  1  0  0  0  0  0  0
  134.8800  132.5000  146.2600 O   0  0  0  0  0  0  0  0  0  0  0  0
  134.9310  135.0750  145.5190 O   0  0  0  0  0  0  0  0  0  0  0  0
  134.4230  135.3060  144.7660 H   0  0  0  0  0  0  0  0  0  0  0  0
  132.3920  133.7080  150.4260 C   0  0  0  0  0  2  0  0  0  0  0  0
  133.3760  133.2290  151.4030 N   0  0  0  0  0  4  0  0  0  0  0  0
  134.1060  132.7260  150.8990 H   0  0  0  0  0  0  0  0  0  0  0  0
  132.8660  132.6400  152.0620 H   0  0  0  0  0  0  0  0  0  0  0  0
  134.0120  134.2810  152.1950 C   0  0  0  0  0  3  0  0  0  0  0  0
  135.5140  134.2130  152.2960 C   0  0  0  0  0  2  0  0  0  0  0  0
  134.6680  133.9640  153.5080 C   0  0  0  0  0  2  0  0  0  0  0  0
  1  2  1  0  0  0  0
  2  3  2  0  0  0  0
  3 11  1  0  0  0  0
  4  3  1  0  0  0  0
  5  4  2  0  0  0  0
  6  1  2  0  0  0  0
  6  5  1  0  0  0  0
  8  7  1  0  0  0  0
  8  1  1  0  0  0  0
  9  6  1  0  0  0  0
 10  9  1  0  0  0  0
 11 12  1  0  0  0  0
 12 14  1  0  0  0  0
 12 15  1  0  0  0  0
 13 12  1  0  0  0  0
 15 16  1  0  0  0  0
 15 17  1  0  0  0  0
 16 17  1  0  0  0  0
M  END
>  <MODEL>
4

>  <REMARK>
 VINA RESULT:    -4.894      1.209      2.438
 INTER + INTRA:          -6.592
 INTER:                  -6.218
 INTRA:                  -0.373
 UNBOUND:                -0.410
  Name = CHEMBL4554340
  6 active torsions:
  status: ('A' for Active; 'I' for Inactive)
    1  A    between atoms: C_1  and  O_2
    2  A    between atoms: O_2  and  C_3
    3  A    between atoms: C_5  and  C_6
    4  A    between atoms: C_6  and  N_7
    5  A    between atoms: N_7  and  C_8
    6  A    between atoms: C_13  and  O_14
                            x       y       z     vdW  Elec       q    Type
                         _______ _______ _______ _____ _____    ______ ____

>  <TORSDO>
F 5

>  <SCORE>
-4.894

>  <RMSD_LB>
1.209

>  <RMSD_UB>
2.438

$$$$
CHEMBL4554340
 OpenBabel10172500113D

 17 18  0  0  0  0  0  0  0  0999 V2000
  145.6040  139.1530  154.4880 C   0  0  0  0  0  0  0  0  0  0  0  0
  145.5870  139.2220  153.0940 C   0  0  0  0  0  3  0  0  0  0  0  0
  146.7660  139.0840  152.3350 C   0  0  0  0  0  0  0  0  0  0  0  0
  147.9660  138.8060  153.0060 C   0  0  0  0  0  3  0  0  0  0  0  0
  147.9950  138.7130  154.4010 C   0  0  0  0  0  3  0  0  0  0  0  0
  146.8200  138.8950  155.1310 C   0  0  0  0  0  0  0  0  0  0  0  0
  143.2400  139.3940  154.6580 C   0  0  0  0  0  1  0  0  0  0  0  0
  144.5090  139.3220  155.2950 O   0  0  0  0  0  0  0  0  0  0  0  0
  146.8490  138.8190  156.4990 O   0  0  0  0  0  0  0  0  0  0  0  0
  147.1540  138.0380  156.9190 H   0  0  0  0  0  0  0  0  0  0  0  0
  146.7410  139.2030  150.8210 C   0  0  0  0  0  2  0  0  0  0  0  0
  147.1520  140.5420  150.3860 N   0  0  0  0  0  4  0  0  0  0  0  0
  147.6680  140.4480  149.5110 H   0  0  0  0  0  0  0  0  0  0  0  0
  147.7150  140.9310  151.1420 H   0  0  0  0  0  0  0  0  0  0  0  0
  146.0500  141.4770  150.1660 C   0  0  0  0  0  3  0  0  0  0  0  0
  146.4360  142.9270  150.0190 C   0  0  0  0  0  2  0  0  0  0  0  0
  145.6660  142.4730  151.2230 C   0  0  0  0  0  2  0  0  0  0  0  0
  1  6  1  0  0  0  0
  1  8  1  0  0  0  0
  2  1  2  0  0  0  0
  3  4  2  0  0  0  0
  3  2  1  0  0  0  0
  4  5  1  0  0  0  0
  5  6  2  0  0  0  0
  6  9  1  0  0  0  0
  7  8  1  0  0  0  0
  9 10  1  0  0  0  0
 11  3  1  0  0  0  0
 12 11  1  0  0  0  0
 12 14  1  0  0  0  0
 13 12  1  0  0  0  0
 15 12  1  0  0  0  0
 15 17  1  0  0  0  0
 16 15  1  0  0  0  0
 16 17  1  0  0  0  0
M  END
>  <MODEL>
5

>  <REMARK>
 VINA RESULT:    -4.836     13.429     14.871
 INTER + INTRA:          -6.518
 INTER:                  -6.089
 INTRA:                  -0.429
 UNBOUND:                -0.410
  Name = CHEMBL4554340
  6 active torsions:
  status: ('A' for Active; 'I' for Inactive)
    1  A    between atoms: C_1  and  O_2
    2  A    between atoms: O_2  and  C_3
    3  A    between atoms: C_5  and  C_6
    4  A    between atoms: C_6  and  N_7
    5  A    between atoms: N_7  and  C_8
    6  A    between atoms: C_13  and  O_14
                            x       y       z     vdW  Elec       q    Type
                         _______ _______ _______ _____ _____    ______ ____

>  <TORSDO>
F 5

>  <SCORE>
-4.836

>  <RMSD_LB>
13.429

>  <RMSD_UB>
14.871

$$$$
CHEMBL4554340
 OpenBabel10172500113D

 17 18  0  0  0  0  0  0  0  0999 V2000
  134.4470  135.9670  150.1780 C   0  0  0  0  0  0  0  0  0  0  0  0
  133.9310  135.9720  151.4760 C   0  0  0  0  0  3  0  0  0  0  0  0
  134.4830  135.1660  152.4910 C   0  0  0  0  0  0  0  0  0  0  0  0
  135.6160  134.3950  152.1930 C   0  0  0  0  0  3  0  0  0  0  0  0
  136.1570  134.3950  150.9030 C   0  0  0  0  0  3  0  0  0  0  0  0
  135.5650  135.1710  149.9060 C   0  0  0  0  0  0  0  0  0  0  0  0
  132.5580  137.0270  149.1870 C   0  0  0  0  0  1  0  0  0  0  0  0
  133.9370  136.6870  149.1300 O   0  0  0  0  0  0  0  0  0  0  0  0
  136.0840  135.1610  148.6370 O   0  0  0  0  0  0  0  0  0  0  0  0
  136.0290  135.9290  148.1020 H   0  0  0  0  0  0  0  0  0  0  0  0
  133.8880  135.1500  153.8880 C   0  0  0  0  0  2  0  0  0  0  0  0
  134.8920  134.7790  154.8910 N   0  0  0  0  0  4  0  0  0  0  0  0
  135.6070  134.2160  154.4320 H   0  0  0  0  0  0  0  0  0  0  0  0
  134.3950  134.2740  155.6240 H   0  0  0  0  0  0  0  0  0  0  0  0
  135.5510  135.9100  155.5410 C   0  0  0  0  0  3  0  0  0  0  0  0
  137.0570  135.8590  155.5870 C   0  0  0  0  0  2  0  0  0  0  0  0
  136.2620  135.7360  156.8530 C   0  0  0  0  0  2  0  0  0  0  0  0
  1  2  1  0  0  0  0
  2  3  2  0  0  0  0
  3 11  1  0  0  0  0
  4  3  1  0  0  0  0
  5  4  2  0  0  0  0
  6  1  2  0  0  0  0
  6  5  1  0  0  0  0
  8  7  1  0  0  0  0
  8  1  1  0  0  0  0
  9  6  1  0  0  0  0
 10  9  1  0  0  0  0
 11 12  1  0  0  0  0
 12 15  1  0  0  0  0
 12 14  1  0  0  0  0
 13 12  1  0  0  0  0
 15 16  1  0  0  0  0
 15 17  1  0  0  0  0
 16 17  1  0  0  0  0
M  END
>  <MODEL>
6

>  <REMARK>
 VINA RESULT:    -4.674      2.658      3.255
 INTER + INTRA:          -6.314
 INTER:                  -5.932
 INTRA:                  -0.381
 UNBOUND:                -0.410
  Name = CHEMBL4554340
  6 active torsions:
  status: ('A' for Active; 'I' for Inactive)
    1  A    between atoms: C_1  and  O_2
    2  A    between atoms: O_2  and  C_3
    3  A    between atoms: C_5  and  C_6
    4  A    between atoms: C_6  and  N_7
    5  A    between atoms: N_7  and  C_8
    6  A    between atoms: C_13  and  O_14
                            x       y       z     vdW  Elec       q    Type
                         _______ _______ _______ _____ _____    ______ ____

>  <TORSDO>
F 5

>  <SCORE>
-4.674

>  <RMSD_LB>
2.658

>  <RMSD_UB>
3.255

$$$$
CHEMBL4554340
 OpenBabel10172500113D

 17 18  0  0  0  0  0  0  0  0999 V2000
  135.3560  135.7870  150.9190 C   0  0  0  0  0  0  0  0  0  0  0  0
  135.3490  135.3420  149.5950 C   0  0  0  0  0  3  0  0  0  0  0  0
  134.1460  135.0640  148.9180 C   0  0  0  0  0  0  0  0  0  0  0  0
  132.9330  135.3050  149.5800 C   0  0  0  0  0  3  0  0  0  0  0  0
  132.9230  135.7710  150.8990 C   0  0  0  0  0  3  0  0  0  0  0  0
  134.1300  135.9990  151.5600 C   0  0  0  0  0  0  0  0  0  0  0  0
  137.3810  137.0190  151.1580 C   0  0  0  0  0  1  0  0  0  0  0  0
  136.4840  136.0350  151.6570 O   0  0  0  0  0  0  0  0  0  0  0  0
  134.1230  136.4410  152.8580 O   0  0  0  0  0  0  0  0  0  0  0  0
  134.8110  136.9980  153.1670 H   0  0  0  0  0  0  0  0  0  0  0  0
  134.1530  134.5410  147.4920 C   0  0  0  0  0  2  0  0  0  0  0  0
  133.1950  135.2700  146.6530 N   0  0  0  0  0  4  0  0  0  0  0  0
  132.3650  135.4640  147.2120 H   0  0  0  0  0  0  0  0  0  0  0  0
  133.0050  134.6730  145.8480 H   0  0  0  0  0  0  0  0  0  0  0  0
  133.6930  136.5370  146.1200 C   0  0  0  0  0  3  0  0  0  0  0  0
  132.8450  137.1820  145.0530 C   0  0  0  0  0  2  0  0  0  0  0  0
  134.1970  136.6320  144.7090 C   0  0  0  0  0  2  0  0  0  0  0  0
  1  6  1  0  0  0  0
  1  8  1  0  0  0  0
  2  1  2  0  0  0  0
  3  4  2  0  0  0  0
  3  2  1  0  0  0  0
  4  5  1  0  0  0  0
  5  6  2  0  0  0  0
  6  9  1  0  0  0  0
  7  8  1  0  0  0  0
  9 10  1  0  0  0  0
 11  3  1  0  0  0  0
 12 13  1  0  0  0  0
 12 11  1  0  0  0  0
 14 12  1  0  0  0  0
 15 12  1  0  0  0  0
 16 15  1  0  0  0  0
 17 16  1  0  0  0  0
 17 15  1  0  0  0  0
M  END
>  <MODEL>
7

>  <REMARK>
 VINA RESULT:    -4.383      3.308      5.902
 INTER + INTRA:          -5.946
 INTER:                  -5.591
 INTRA:                  -0.354
 UNBOUND:                -0.410
  Name = CHEMBL4554340
  6 active torsions:
  status: ('A' for Active; 'I' for Inactive)
    1  A    between atoms: C_1  and  O_2
    2  A    between atoms: O_2  and  C_3
    3  A    between atoms: C_5  and  C_6
    4  A    between atoms: C_6  and  N_7
    5  A    between atoms: N_7  and  C_8
    6  A    between atoms: C_13  and  O_14
                            x       y       z     vdW  Elec       q    Type
                         _______ _______ _______ _____ _____    ______ ____

>  <TORSDO>
F 5

>  <SCORE>
-4.383

>  <RMSD_LB>
3.308

>  <RMSD_UB>
5.902

$$$$
CHEMBL4554340
 OpenBabel10172500113D

 17 18  0  0  0  0  0  0  0  0999 V2000
  142.0170  139.7670  149.9230 C   0  0  0  0  0  0  0  0  0  0  0  0
  142.6520  139.8030  151.1660 C   0  0  0  0  0  3  0  0  0  0  0  0
  143.7730  138.9960  151.4450 C   0  0  0  0  0  0  0  0  0  0  0  0
  144.2910  138.1920  150.4190 C   0  0  0  0  0  3  0  0  0  0  0  0
  143.6790  138.1610  149.1620 C   0  0  0  0  0  3  0  0  0  0  0  0
  142.5450  138.9390  148.9250 C   0  0  0  0  0  0  0  0  0  0  0  0
  139.7140  140.2160  150.3300 C   0  0  0  0  0  1  0  0  0  0  0  0
  140.8990  140.4870  149.5930 O   0  0  0  0  0  0  0  0  0  0  0  0
  141.9350  138.9000  147.6990 O   0  0  0  0  0  0  0  0  0  0  0  0
  141.0620  139.2260  147.5990 H   0  0  0  0  0  0  0  0  0  0  0  0
  144.4280  139.0130  152.8140 C   0  0  0  0  0  2  0  0  0  0  0  0
  144.7680  140.3800  153.2250 N   0  0  0  0  0  4  0  0  0  0  0  0
  145.0470  140.3580  154.2050 H   0  0  0  0  0  0  0  0  0  0  0  0
  143.9350  140.9460  153.0580 H   0  0  0  0  0  0  0  0  0  0  0  0
  145.8480  140.9960  152.4570 C   0  0  0  0  0  3  0  0  0  0  0  0
  146.4300  142.2610  153.0350 C   0  0  0  0  0  2  0  0  0  0  0  0
  145.6420  142.3110  151.7600 C   0  0  0  0  0  2  0  0  0  0  0  0
  1  2  1  0  0  0  0
  2  3  2  0  0  0  0
  3 11  1  0  0  0  0
  4  3  1  0  0  0  0
  5  4  2  0  0  0  0
  6  5  1  0  0  0  0
  6  1  2  0  0  0  0
  8  1  1  0  0  0  0
  8  7  1  0  0  0  0
  9  6  1  0  0  0  0
 10  9  1  0  0  0  0
 11 12  1  0  0  0  0
 12 13  1  0  0  0  0
 14 12  1  0  0  0  0
 15 16  1  0  0  0  0
 15 12  1  0  0  0  0
 17 15  1  0  0  0  0
 17 16  1  0  0  0  0
M  END
>  <MODEL>
8

>  <REMARK>
 VINA RESULT:    -4.305     10.817     11.515
 INTER + INTRA:          -5.848
 INTER:                  -5.381
 INTRA:                  -0.467
 UNBOUND:                -0.410
  Name = CHEMBL4554340
  6 active torsions:
  status: ('A' for Active; 'I' for Inactive)
    1  A    between atoms: C_1  and  O_2
    2  A    between atoms: O_2  and  C_3
    3  A    between atoms: C_5  and  C_6
    4  A    between atoms: C_6  and  N_7
    5  A    between atoms: N_7  and  C_8
    6  A    between atoms: C_13  and  O_14
                            x       y       z     vdW  Elec       q    Type
                         _______ _______ _______ _____ _____    ______ ____

>  <TORSDO>
F 5

>  <SCORE>
-4.305

>  <RMSD_LB>
10.817

>  <RMSD_UB>
11.515

$$$$
CHEMBL4554340
 OpenBabel10172500113D

 17 18  0  0  0  0  0  0  0  0999 V2000
  145.9450  138.6290  154.2150 C   0  0  0  0  0  0  0  0  0  0  0  0
  145.5910  137.6420  153.2930 C   0  0  0  0  0  3  0  0  0  0  0  0
  146.5490  137.0380  152.4550 C   0  0  0  0  0  0  0  0  0  0  0  0
  147.8950  137.4000  152.6070 C   0  0  0  0  0  3  0  0  0  0  0  0
  148.2690  138.3720  153.5410 C   0  0  0  0  0  3  0  0  0  0  0  0
  147.2940  138.9840  154.3300 C   0  0  0  0  0  0  0  0  0  0  0  0
  143.7050  139.3270  154.6220 C   0  0  0  0  0  1  0  0  0  0  0  0
  145.0660  139.2920  155.0300 O   0  0  0  0  0  0  0  0  0  0  0  0
  147.6560  139.9470  155.2360 O   0  0  0  0  0  0  0  0  0  0  0  0
  148.2750  139.7470  155.9100 H   0  0  0  0  0  0  0  0  0  0  0  0
  146.1440  135.9960  151.4270 C   0  0  0  0  0  2  0  0  0  0  0  0
  145.4660  136.6140  150.2820 N   0  0  0  0  0  4  0  0  0  0  0  0
  146.0100  136.4130  149.4430 H   0  0  0  0  0  0  0  0  0  0  0  0
  145.4020  137.6110  150.4880 H   0  0  0  0  0  0  0  0  0  0  0  0
  144.0980  136.1480  150.0590 C   0  0  0  0  0  3  0  0  0  0  0  0
  143.1970  137.0880  149.2990 C   0  0  0  0  0  2  0  0  0  0  0  0
  142.9400  136.8090  150.7500 C   0  0  0  0  0  2  0  0  0  0  0  0
  1  6  1  0  0  0  0
  1  8  1  0  0  0  0
  2  1  2  0  0  0  0
  3  4  2  0  0  0  0
  3  2  1  0  0  0  0
  4  5  1  0  0  0  0
  5  6  2  0  0  0  0
  6  9  1  0  0  0  0
  7  8  1  0  0  0  0
  9 10  1  0  0  0  0
 11  3  1  0  0  0  0
 12 14  1  0  0  0  0
 12 11  1  0  0  0  0
 13 12  1  0  0  0  0
 15 12  1  0  0  0  0
 15 17  1  0  0  0  0
 16 15  1  0  0  0  0
 16 17  1  0  0  0  0
M  END
>  <MODEL>
9

>  <REMARK>
 VINA RESULT:    -4.116     12.253     13.782
 INTER + INTRA:          -5.608
 INTER:                  -5.198
 INTRA:                  -0.410
 UNBOUND:                -0.410
  Name = CHEMBL4554340
  6 active torsions:
  status: ('A' for Active; 'I' for Inactive)
    1  A    between atoms: C_1  and  O_2
    2  A    between atoms: O_2  and  C_3
    3  A    between atoms: C_5  and  C_6
    4  A    between atoms: C_6  and  N_7
    5  A    between atoms: N_7  and  C_8
    6  A    between atoms: C_13  and  O_14
                            x       y       z     vdW  Elec       q    Type
                         _______ _______ _______ _____ _____    ______ ____

>  <TORSDO>
F 5

>  <SCORE>
-4.116

>  <RMSD_LB>
12.253

>  <RMSD_UB>
13.782

$$$$
