CHEMBL1558073
 OpenBabel10172500553D

 24 24  0  0  1  0  0  0  0  0999 V2000
  145.7970  137.8160  154.2760 C   0  0  0  0  0  0  0  0  0  0  0  0
  146.1900  136.6760  154.0390 O   0  0  0  0  0  0  0  0  0  0  0  0
  144.5700  138.2930  153.8660 N   0  0  0  0  0  0  0  0  0  0  0  0
  144.3510  139.2420  154.0140 H   0  0  0  0  0  0  0  0  0  0  0  0
  146.6570  138.8200  155.0520 C   0  0  0  0  0  2  0  0  0  0  0  0
  146.6160  140.1370  154.4970 O   0  0  0  0  0  0  0  0  0  0  0  0
  147.8100  140.5760  154.0100 C   0  0  0  0  0  0  0  0  0  0  0  0
  148.8850  140.4250  154.5770 O   0  0  0  0  0  0  0  0  0  0  0  0
  147.6220  141.2560  152.6610 C   0  0  2  0  0  3  0  0  0  0  0  0
  148.9610  141.8500  152.2300 C   0  0  0  0  0  1  0  0  0  0  0  0
  146.5000  142.3080  152.7590 C   0  0  0  0  0  2  0  0  0  0  0  0
  146.1790  142.8820  150.3230 C   0  0  0  0  0  1  0  0  0  0  0  0
  145.5340  142.2950  151.5700 C   0  0  0  0  0  2  0  0  0  0  0  0
  143.5980  137.4360  153.2260 C   0  0  0  0  0  2  0  0  0  0  0  0
  142.1850  137.8340  153.5650 C   0  0  0  0  0  0  0  0  0  0  0  0
  141.8040  138.0140  154.8980 C   0  0  0  0  0  3  0  0  0  0  0  0
  140.5030  138.4210  155.2230 C   0  0  0  0  0  3  0  0  0  0  0  0
  139.5480  138.6500  154.2230 C   0  0  0  0  0  0  0  0  0  0  0  0
  139.9270  138.4780  152.8810 C   0  0  0  0  0  0  0  0  0  0  0  0
  141.2270  138.0490  152.5660 C   0  0  0  0  0  3  0  0  0  0  0  0
  138.2520  139.0090  154.4820 O   0  0  0  0  0  0  0  0  0  0  0  0
  137.5770  138.3650  155.5550 C   0  0  0  0  0  1  0  0  0  0  0  0
  139.1280  138.6420  151.7750 O   0  0  0  0  0  0  0  0  0  0  0  0
  139.4770  139.7040  150.8940 C   0  0  0  0  0  1  0  0  0  0  0  0
  1  5  1  0  0  0  0
  2  1  2  0  0  0  0
  3  4  1  0  0  0  0
  3  1  1  0  0  0  0
  6  5  1  0  0  0  0
  7  6  1  0  0  0  0
  7  8  2  0  0  0  0
  9 10  1  1  0  0  0
  9 11  1  0  0  0  0
  9  7  1  0  0  0  0
 12 13  1  0  0  0  0
 13 11  1  0  0  0  0
 14 15  1  0  0  0  0
 14  3  1  0  0  0  0
 15 16  1  0  0  0  0
 16 17  2  0  0  0  0
 18 21  1  0  0  0  0
 18 17  1  0  0  0  0
 19 18  2  0  0  0  0
 20 19  1  0  0  0  0
 20 15  2  0  0  0  0
 21 22  1  0  0  0  0
 23 19  1  0  0  0  0
 24 23  1  0  0  0  0
M  END
>  <MODEL>
1

>  <REMARK>
 VINA RESULT:    -6.690      0.000      0.000
 INTER + INTRA:         -11.337
 INTER:                 -10.685
 INTRA:                  -0.652
 UNBOUND:                -0.737
  Name = CHEMBL1558073
  14 active torsions:
  status: ('A' for Active; 'I' for Inactive)
    1  A    between atoms: C_1  and  C_2
    2  A    between atoms: C_2  and  C_3
    3  A    between atoms: C_3  and  C_4
    4  A    between atoms: C_4  and  C_5
    5  A    between atoms: C_4  and  C_6
    6  A    between atoms: C_6  and  O_8
    7  A    between atoms: O_8  and  C_9
    8  A    between atoms: C_9  and  C_10
    9  A    between atoms: N_12  and  C_13
   10  A    between atoms: C_13  and  C_14
   11  A    between atoms: C_17  and  O_18
   12  A    between atoms: O_18  and  C_19
   13  A    between atoms: C_20  and  O_21
   14  A    between atoms: O_21  and  C_22
                            x       y       z     vdW  Elec       q    Type
                         _______ _______ _______ _____ _____    ______ ____

>  <TORSDO>
F 10

>  <SCORE>
-6.690

>  <RMSD_LB>
0.000

>  <RMSD_UB>
0.000

$$$$
CHEMBL1558073
 OpenBabel10172500553D

 24 24  0  0  1  0  0  0  0  0999 V2000
  139.4530  138.1330  153.0570 C   0  0  0  0  0  0  0  0  0  0  0  0
  140.5050  137.7510  152.5480 O   0  0  0  0  0  0  0  0  0  0  0  0
  138.2180  137.9420  152.4730 N   0  0  0  0  0  0  0  0  0  0  0  0
  137.4230  138.3470  152.8900 H   0  0  0  0  0  0  0  0  0  0  0  0
  139.4280  138.8730  154.3980 C   0  0  0  0  0  2  0  0  0  0  0  0
  139.0040  138.0460  155.4840 O   0  0  0  0  0  0  0  0  0  0  0  0
  137.7340  138.2900  155.9110 C   0  0  0  0  0  0  0  0  0  0  0  0
  136.9300  138.9980  155.3180 O   0  0  0  0  0  0  0  0  0  0  0  0
  137.4500  137.5460  157.2090 C   0  0  2  0  0  3  0  0  0  0  0  0
  138.5770  137.8470  158.1940 C   0  0  0  0  0  1  0  0  0  0  0  0
  137.2850  136.0410  156.9220 C   0  0  0  0  0  2  0  0  0  0  0  0
  136.2080  134.7320  158.7910 C   0  0  0  0  0  1  0  0  0  0  0  0
  135.9840  135.4460  157.4660 C   0  0  0  0  0  2  0  0  0  0  0  0
  138.0610  137.1610  151.2660 C   0  0  0  0  0  2  0  0  0  0  0  0
  136.6550  136.6440  151.1070 C   0  0  0  0  0  0  0  0  0  0  0  0
  136.0730  136.5630  149.8390 C   0  0  0  0  0  3  0  0  0  0  0  0
  134.7800  136.0500  149.6750 C   0  0  0  0  0  3  0  0  0  0  0  0
  134.0340  135.6100  150.7760 C   0  0  0  0  0  0  0  0  0  0  0  0
  134.6160  135.6810  152.0540 C   0  0  0  0  0  0  0  0  0  0  0  0
  135.9040  136.2190  152.2110 C   0  0  0  0  0  3  0  0  0  0  0  0
  132.7520  135.1370  150.6820 O   0  0  0  0  0  0  0  0  0  0  0  0
  132.5600  133.7870  150.2820 C   0  0  0  0  0  1  0  0  0  0  0  0
  134.0350  135.3130  153.2430 O   0  0  0  0  0  0  0  0  0  0  0  0
  134.4770  134.0860  153.8100 C   0  0  0  0  0  1  0  0  0  0  0  0
  1  5  1  0  0  0  0
  2  1  2  0  0  0  0
  3  4  1  0  0  0  0
  3  1  1  0  0  0  0
  5  6  1  0  0  0  0
  6  7  1  0  0  0  0
  7  9  1  0  0  0  0
  8  7  2  0  0  0  0
  9 10  1  1  0  0  0
 11  9  1  0  0  0  0
 11 13  1  0  0  0  0
 13 12  1  0  0  0  0
 14  3  1  0  0  0  0
 15 14  1  0  0  0  0
 15 20  1  0  0  0  0
 16 15  2  0  0  0  0
 17 16  1  0  0  0  0
 17 18  2  0  0  0  0
 18 19  1  0  0  0  0
 19 20  2  0  0  0  0
 19 23  1  0  0  0  0
 21 18  1  0  0  0  0
 22 21  1  0  0  0  0
 23 24  1  0  0  0  0
M  END
>  <MODEL>
2

>  <REMARK>
 VINA RESULT:    -6.404      5.904      9.092
 INTER + INTRA:         -10.885
 INTER:                  -9.885
 INTRA:                  -1.000
 UNBOUND:                -0.737
  Name = CHEMBL1558073
  14 active torsions:
  status: ('A' for Active; 'I' for Inactive)
    1  A    between atoms: C_1  and  C_2
    2  A    between atoms: C_2  and  C_3
    3  A    between atoms: C_3  and  C_4
    4  A    between atoms: C_4  and  C_5
    5  A    between atoms: C_4  and  C_6
    6  A    between atoms: C_6  and  O_8
    7  A    between atoms: O_8  and  C_9
    8  A    between atoms: C_9  and  C_10
    9  A    between atoms: N_12  and  C_13
   10  A    between atoms: C_13  and  C_14
   11  A    between atoms: C_17  and  O_18
   12  A    between atoms: O_18  and  C_19
   13  A    between atoms: C_20  and  O_21
   14  A    between atoms: O_21  and  C_22
                            x       y       z     vdW  Elec       q    Type
                         _______ _______ _______ _____ _____    ______ ____

>  <TORSDO>
F 10

>  <SCORE>
-6.404

>  <RMSD_LB>
5.904

>  <RMSD_UB>
9.092

$$$$
CHEMBL1558073
 OpenBabel10172500553D

 24 24  0  0  1  0  0  0  0  0999 V2000
  144.8680  137.5470  151.5690 C   0  0  0  0  0  0  0  0  0  0  0  0
  145.1230  136.3850  151.2570 O   0  0  0  0  0  0  0  0  0  0  0  0
  143.6090  138.0990  151.4610 N   0  0  0  0  0  0  0  0  0  0  0  0
  143.4890  139.0580  151.6470 H   0  0  0  0  0  0  0  0  0  0  0  0
  145.9480  138.4940  152.1020 C   0  0  0  0  0  2  0  0  0  0  0  0
  145.7120  139.8610  151.7580 O   0  0  0  0  0  0  0  0  0  0  0  0
  146.5500  140.3510  150.8020 C   0  0  0  0  0  0  0  0  0  0  0  0
  146.7670  139.8040  149.7280 O   0  0  0  0  0  0  0  0  0  0  0  0
  147.1580  141.6740  151.2470 C   0  0  2  0  0  3  0  0  0  0  0  0
  147.0390  142.6700  150.0960 C   0  0  0  0  0  1  0  0  0  0  0  0
  148.6120  141.4530  151.7050 C   0  0  0  0  0  2  0  0  0  0  0  0
  147.7080  141.8540  154.0270 C   0  0  0  0  0  1  0  0  0  0  0  0
  148.9110  141.9990  153.1040 C   0  0  0  0  0  2  0  0  0  0  0  0
  142.4610  137.3040  151.0850 C   0  0  0  0  0  2  0  0  0  0  0  0
  141.2550  137.6210  151.9300 C   0  0  0  0  0  0  0  0  0  0  0  0
  139.9670  137.4710  151.4050 C   0  0  0  0  0  3  0  0  0  0  0  0
  138.8380  137.7270  152.1930 C   0  0  0  0  0  3  0  0  0  0  0  0
  138.9660  138.1460  153.5230 C   0  0  0  0  0  0  0  0  0  0  0  0
  140.2570  138.2930  154.0600 C   0  0  0  0  0  0  0  0  0  0  0  0
  141.3840  138.0550  153.2560 C   0  0  0  0  0  3  0  0  0  0  0  0
  137.9010  138.4500  154.3280 O   0  0  0  0  0  0  0  0  0  0  0  0
  137.2260  137.3840  154.9830 C   0  0  0  0  0  1  0  0  0  0  0  0
  140.5770  138.7050  155.3300 O   0  0  0  0  0  0  0  0  0  0  0  0
  140.6710  137.6880  156.3210 C   0  0  0  0  0  1  0  0  0  0  0  0
  1  5  1  0  0  0  0
  2  1  2  0  0  0  0
  3  1  1  0  0  0  0
  3  4  1  0  0  0  0
  6  5  1  0  0  0  0
  7  9  1  0  0  0  0
  7  6  1  0  0  0  0
  8  7  2  0  0  0  0
  9 10  1  6  0  0  0
  9 11  1  0  0  0  0
 11 13  1  0  0  0  0
 13 12  1  0  0  0  0
 14  3  1  0  0  0  0
 14 15  1  0  0  0  0
 15 20  1  0  0  0  0
 16 15  2  0  0  0  0
 16 17  1  0  0  0  0
 17 18  2  0  0  0  0
 18 19  1  0  0  0  0
 18 21  1  0  0  0  0
 19 23  1  0  0  0  0
 20 19  2  0  0  0  0
 21 22  1  0  0  0  0
 23 24  1  0  0  0  0
M  END
>  <MODEL>
3

>  <REMARK>
 VINA RESULT:    -6.218      2.039      3.114
 INTER + INTRA:         -10.589
 INTER:                  -9.790
 INTRA:                  -0.800
 UNBOUND:                -0.737
  Name = CHEMBL1558073
  14 active torsions:
  status: ('A' for Active; 'I' for Inactive)
    1  A    between atoms: C_1  and  C_2
    2  A    between atoms: C_2  and  C_3
    3  A    between atoms: C_3  and  C_4
    4  A    between atoms: C_4  and  C_5
    5  A    between atoms: C_4  and  C_6
    6  A    between atoms: C_6  and  O_8
    7  A    between atoms: O_8  and  C_9
    8  A    between atoms: C_9  and  C_10
    9  A    between atoms: N_12  and  C_13
   10  A    between atoms: C_13  and  C_14
   11  A    between atoms: C_17  and  O_18
   12  A    between atoms: O_18  and  C_19
   13  A    between atoms: C_20  and  O_21
   14  A    between atoms: O_21  and  C_22
                            x       y       z     vdW  Elec       q    Type
                         _______ _______ _______ _____ _____    ______ ____

>  <TORSDO>
F 10

>  <SCORE>
-6.218

>  <RMSD_LB>
2.039

>  <RMSD_UB>
3.114

$$$$
CHEMBL1558073
 OpenBabel10172500553D

 24 24  0  0  1  0  0  0  0  0999 V2000
  146.3960  137.3590  152.1120 C   0  0  0  0  0  0  0  0  0  0  0  0
  146.3190  136.3930  152.8690 O   0  0  0  0  0  0  0  0  0  0  0  0
  145.5490  137.5470  151.0410 N   0  0  0  0  0  0  0  0  0  0  0  0
  145.7170  138.2950  150.4230 H   0  0  0  0  0  0  0  0  0  0  0  0
  147.4610  138.4450  152.2950 C   0  0  0  0  0  2  0  0  0  0  0  0
  147.4890  138.9830  153.6190 O   0  0  0  0  0  0  0  0  0  0  0  0
  146.6400  140.0300  153.8150 C   0  0  0  0  0  0  0  0  0  0  0  0
  145.5740  139.9510  154.4150 O   0  0  0  0  0  0  0  0  0  0  0  0
  147.2080  141.3050  153.2090 C   0  0  2  0  0  3  0  0  0  0  0  0
  148.2560  141.8690  154.1650 C   0  0  0  0  0  1  0  0  0  0  0  0
  146.0660  142.2960  152.9130 C   0  0  0  0  0  2  0  0  0  0  0  0
  147.0430  142.2850  150.5870 C   0  0  0  0  0  1  0  0  0  0  0  0
  145.7860  142.4920  151.4200 C   0  0  0  0  0  2  0  0  0  0  0  0
  144.4200  136.6750  150.8020 C   0  0  0  0  0  2  0  0  0  0  0  0
  143.1380  137.2500  151.3440 C   0  0  0  0  0  0  0  0  0  0  0  0
  141.9170  136.9530  150.7300 C   0  0  0  0  0  3  0  0  0  0  0  0
  140.7150  137.4520  151.2480 C   0  0  0  0  0  3  0  0  0  0  0  0
  140.7030  138.2660  152.3880 C   0  0  0  0  0  0  0  0  0  0  0  0
  141.9260  138.5630  153.0140 C   0  0  0  0  0  0  0  0  0  0  0  0
  143.1290  138.0760  152.4750 C   0  0  0  0  0  3  0  0  0  0  0  0
  139.5650  138.8150  152.9150 O   0  0  0  0  0  0  0  0  0  0  0  0
  138.4900  137.9470  153.2480 C   0  0  0  0  0  1  0  0  0  0  0  0
  142.1110  139.3500  154.1250 O   0  0  0  0  0  0  0  0  0  0  0  0
  141.6710  138.8080  155.3650 C   0  0  0  0  0  1  0  0  0  0  0  0
  1  5  1  0  0  0  0
  1  2  2  0  0  0  0
  3  1  1  0  0  0  0
  4  3  1  0  0  0  0
  5  6  1  0  0  0  0
  6  7  1  0  0  0  0
  7  8  2  0  0  0  0
  9  7  1  0  0  0  0
  9 10  1  1  0  0  0
 11  9  1  0  0  0  0
 12 13  1  0  0  0  0
 13 11  1  0  0  0  0
 14  3  1  0  0  0  0
 14 15  1  0  0  0  0
 15 20  1  0  0  0  0
 16 17  1  0  0  0  0
 16 15  2  0  0  0  0
 17 18  2  0  0  0  0
 18 21  1  0  0  0  0
 18 19  1  0  0  0  0
 19 23  1  0  0  0  0
 20 19  2  0  0  0  0
 21 22  1  0  0  0  0
 23 24  1  0  0  0  0
M  END
>  <MODEL>
4

>  <REMARK>
 VINA RESULT:    -6.095      1.787      2.628
 INTER + INTRA:         -10.394
 INTER:                  -9.505
 INTRA:                  -0.890
 UNBOUND:                -0.737
  Name = CHEMBL1558073
  14 active torsions:
  status: ('A' for Active; 'I' for Inactive)
    1  A    between atoms: C_1  and  C_2
    2  A    between atoms: C_2  and  C_3
    3  A    between atoms: C_3  and  C_4
    4  A    between atoms: C_4  and  C_5
    5  A    between atoms: C_4  and  C_6
    6  A    between atoms: C_6  and  O_8
    7  A    between atoms: O_8  and  C_9
    8  A    between atoms: C_9  and  C_10
    9  A    between atoms: N_12  and  C_13
   10  A    between atoms: C_13  and  C_14
   11  A    between atoms: C_17  and  O_18
   12  A    between atoms: O_18  and  C_19
   13  A    between atoms: C_20  and  O_21
   14  A    between atoms: O_21  and  C_22
                            x       y       z     vdW  Elec       q    Type
                         _______ _______ _______ _____ _____    ______ ____

>  <TORSDO>
F 10

>  <SCORE>
-6.095

>  <RMSD_LB>
1.787

>  <RMSD_UB>
2.628

$$$$
CHEMBL1558073
 OpenBabel10172500553D

 24 24  0  0  1  0  0  0  0  0999 V2000
  138.9030  138.0670  153.2700 C   0  0  0  0  0  0  0  0  0  0  0  0
  140.0050  138.3520  152.8060 O   0  0  0  0  0  0  0  0  0  0  0  0
  137.8710  137.5610  152.5090 N   0  0  0  0  0  0  0  0  0  0  0  0
  136.9860  137.4350  152.9240 H   0  0  0  0  0  0  0  0  0  0  0  0
  138.5780  138.2630  154.7550 C   0  0  0  0  0  2  0  0  0  0  0  0
  137.1780  138.1850  155.0350 O   0  0  0  0  0  0  0  0  0  0  0  0
  136.8820  137.7470  156.2900 C   0  0  0  0  0  0  0  0  0  0  0  0
  136.6580  138.4830  157.2440 O   0  0  0  0  0  0  0  0  0  0  0  0
  136.8480  136.2250  156.3350 C   0  0  2  0  0  3  0  0  0  0  0  0
  136.0230  135.7260  155.1520 C   0  0  0  0  0  1  0  0  0  0  0  0
  136.2970  135.7560  157.6960 C   0  0  0  0  0  2  0  0  0  0  0  0
  134.1920  135.0470  158.8920 C   0  0  0  0  0  1  0  0  0  0  0  0
  134.9870  134.9700  157.5960 C   0  0  0  0  0  2  0  0  0  0  0  0
  138.0530  137.2110  151.1180 C   0  0  0  0  0  2  0  0  0  0  0  0
  136.9550  136.3130  150.6130 C   0  0  0  0  0  0  0  0  0  0  0  0
  136.2080  135.5400  151.5080 C   0  0  0  0  0  3  0  0  0  0  0  0
  135.1600  134.7290  151.0530 C   0  0  0  0  0  3  0  0  0  0  0  0
  134.8360  134.6660  149.6910 C   0  0  0  0  0  0  0  0  0  0  0  0
  135.5780  135.4450  148.7870 C   0  0  0  0  0  0  0  0  0  0  0  0
  136.6410  136.2380  149.2490 C   0  0  0  0  0  3  0  0  0  0  0  0
  133.8500  133.8610  149.1850 O   0  0  0  0  0  0  0  0  0  0  0  0
  132.6500  133.7150  149.9320 C   0  0  0  0  0  1  0  0  0  0  0  0
  135.4150  135.4990  147.4240 O   0  0  0  0  0  0  0  0  0  0  0  0
  136.3860  134.8120  146.6430 C   0  0  0  0  0  1  0  0  0  0  0  0
  1  5  1  0  0  0  0
  2  1  2  0  0  0  0
  3  4  1  0  0  0  0
  3  1  1  0  0  0  0
  5  6  1  0  0  0  0
  6  7  1  0  0  0  0
  7  9  1  0  0  0  0
  7  8  2  0  0  0  0
  9 10  1  6  0  0  0
  9 11  1  0  0  0  0
 13 11  1  0  0  0  0
 13 12  1  0  0  0  0
 14  3  1  0  0  0  0
 15 14  1  0  0  0  0
 15 16  1  0  0  0  0
 17 16  2  0  0  0  0
 18 17  1  0  0  0  0
 19 20  1  0  0  0  0
 19 18  2  0  0  0  0
 20 15  2  0  0  0  0
 21 18  1  0  0  0  0
 21 22  1  0  0  0  0
 23 19  1  0  0  0  0
 24 23  1  0  0  0  0
M  END
>  <MODEL>
5

>  <REMARK>
 VINA RESULT:    -6.069      6.336      9.727
 INTER + INTRA:         -10.354
 INTER:                  -9.476
 INTRA:                  -0.878
 UNBOUND:                -0.737
  Name = CHEMBL1558073
  14 active torsions:
  status: ('A' for Active; 'I' for Inactive)
    1  A    between atoms: C_1  and  C_2
    2  A    between atoms: C_2  and  C_3
    3  A    between atoms: C_3  and  C_4
    4  A    between atoms: C_4  and  C_5
    5  A    between atoms: C_4  and  C_6
    6  A    between atoms: C_6  and  O_8
    7  A    between atoms: O_8  and  C_9
    8  A    between atoms: C_9  and  C_10
    9  A    between atoms: N_12  and  C_13
   10  A    between atoms: C_13  and  C_14
   11  A    between atoms: C_17  and  O_18
   12  A    between atoms: O_18  and  C_19
   13  A    between atoms: C_20  and  O_21
   14  A    between atoms: O_21  and  C_22
                            x       y       z     vdW  Elec       q    Type
                         _______ _______ _______ _____ _____    ______ ____

>  <TORSDO>
F 10

>  <SCORE>
-6.069

>  <RMSD_LB>
6.336

>  <RMSD_UB>
9.727

$$$$
CHEMBL1558073
 OpenBabel10172500553D

 24 24  0  0  1  0  0  0  0  0999 V2000
  147.5510  141.9260  152.7610 C   0  0  0  0  0  0  0  0  0  0  0  0
  148.3110  141.8280  151.8000 O   0  0  0  0  0  0  0  0  0  0  0  0
  146.2250  142.2860  152.6420 N   0  0  0  0  0  0  0  0  0  0  0  0
  145.6930  142.4300  153.4580 H   0  0  0  0  0  0  0  0  0  0  0  0
  148.0240  141.6610  154.1940 C   0  0  0  0  0  2  0  0  0  0  0  0
  148.2750  140.2780  154.4530 O   0  0  0  0  0  0  0  0  0  0  0  0
  147.1560  139.5020  154.4810 C   0  0  0  0  0  0  0  0  0  0  0  0
  146.0380  139.9120  154.7700 O   0  0  0  0  0  0  0  0  0  0  0  0
  147.4840  138.0690  154.0840 C   0  0  2  0  0  3  0  0  0  0  0  0
  148.2680  137.4210  155.2220 C   0  0  0  0  0  1  0  0  0  0  0  0
  148.2470  138.0620  152.7450 C   0  0  0  0  0  2  0  0  0  0  0  0
  146.4200  136.6110  151.7820 C   0  0  0  0  0  1  0  0  0  0  0  0
  147.3600  137.7820  151.5290 C   0  0  0  0  0  2  0  0  0  0  0  0
  145.5970  142.4570  151.3510 C   0  0  0  0  0  2  0  0  0  0  0  0
  145.1440  141.1450  150.7660 C   0  0  0  0  0  0  0  0  0  0  0  0
  144.1950  140.3650  151.4350 C   0  0  0  0  0  3  0  0  0  0  0  0
  143.7390  139.1610  150.8820 C   0  0  0  0  0  3  0  0  0  0  0  0
  144.2240  138.7040  149.6500 C   0  0  0  0  0  0  0  0  0  0  0  0
  145.1720  139.4860  148.9680 C   0  0  0  0  0  0  0  0  0  0  0  0
  145.6400  140.6810  149.5410 C   0  0  0  0  0  3  0  0  0  0  0  0
  143.8450  137.5170  149.0800 O   0  0  0  0  0  0  0  0  0  0  0  0
  143.1410  136.5800  149.8840 C   0  0  0  0  0  1  0  0  0  0  0  0
  145.7670  139.1930  147.7650 O   0  0  0  0  0  0  0  0  0  0  0  0
  147.0770  138.6410  147.8260 C   0  0  0  0  0  1  0  0  0  0  0  0
  1  5  1  0  0  0  0
  2  1  2  0  0  0  0
  3  1  1  0  0  0  0
  3  4  1  0  0  0  0
  5  6  1  0  0  0  0
  6  7  1  0  0  0  0
  7  8  2  0  0  0  0
  9  7  1  0  0  0  0
  9 10  1  1  0  0  0
 11  9  1  0  0  0  0
 13 12  1  0  0  0  0
 13 11  1  0  0  0  0
 14  3  1  0  0  0  0
 15 14  1  0  0  0  0
 15 16  1  0  0  0  0
 17 16  2  0  0  0  0
 18 17  1  0  0  0  0
 19 20  1  0  0  0  0
 19 18  2  0  0  0  0
 20 15  2  0  0  0  0
 21 18  1  0  0  0  0
 21 22  1  0  0  0  0
 23 24  1  0  0  0  0
 23 19  1  0  0  0  0
M  END
>  <MODEL>
6

>  <REMARK>
 VINA RESULT:    -5.933      3.864      5.607
 INTER + INTRA:         -10.138
 INTER:                  -8.289
 INTRA:                  -1.850
 UNBOUND:                -0.737
  Name = CHEMBL1558073
  14 active torsions:
  status: ('A' for Active; 'I' for Inactive)
    1  A    between atoms: C_1  and  C_2
    2  A    between atoms: C_2  and  C_3
    3  A    between atoms: C_3  and  C_4
    4  A    between atoms: C_4  and  C_5
    5  A    between atoms: C_4  and  C_6
    6  A    between atoms: C_6  and  O_8
    7  A    between atoms: O_8  and  C_9
    8  A    between atoms: C_9  and  C_10
    9  A    between atoms: N_12  and  C_13
   10  A    between atoms: C_13  and  C_14
   11  A    between atoms: C_17  and  O_18
   12  A    between atoms: O_18  and  C_19
   13  A    between atoms: C_20  and  O_21
   14  A    between atoms: O_21  and  C_22
                            x       y       z     vdW  Elec       q    Type
                         _______ _______ _______ _____ _____    ______ ____

>  <TORSDO>
F 10

>  <SCORE>
-5.933

>  <RMSD_LB>
3.864

>  <RMSD_UB>
5.607

$$$$
CHEMBL1558073
 OpenBabel10172500553D

 24 24  0  0  1  0  0  0  0  0999 V2000
  135.0610  133.0970  146.1140 C   0  0  0  0  0  0  0  0  0  0  0  0
  133.9240  132.9790  145.6630 O   0  0  0  0  0  0  0  0  0  0  0  0
  135.3570  132.9760  147.4550 N   0  0  0  0  0  0  0  0  0  0  0  0
  136.2730  133.1660  147.7630 H   0  0  0  0  0  0  0  0  0  0  0  0
  136.2600  133.4030  145.2100 C   0  0  0  0  0  2  0  0  0  0  0  0
  136.3800  134.7920  144.8940 O   0  0  0  0  0  0  0  0  0  0  0  0
  136.6610  135.5880  145.9630 C   0  0  0  0  0  0  0  0  0  0  0  0
  137.6020  135.4120  146.7270 O   0  0  0  0  0  0  0  0  0  0  0  0
  135.6580  136.7300  146.0610 C   0  0  2  0  0  3  0  0  0  0  0  0
  136.4190  138.0490  145.9640 C   0  0  0  0  0  1  0  0  0  0  0  0
  134.8440  136.5970  147.3630 C   0  0  0  0  0  2  0  0  0  0  0  0
  132.6360  137.0930  148.4810 C   0  0  0  0  0  1  0  0  0  0  0  0
  133.3340  136.7640  147.1680 C   0  0  0  0  0  2  0  0  0  0  0  0
  134.3580  132.5750  148.4210 C   0  0  0  0  0  2  0  0  0  0  0  0
  134.2400  133.5610  149.5530 C   0  0  0  0  0  0  0  0  0  0  0  0
  133.0080  133.7690  150.1820 C   0  0  0  0  0  3  0  0  0  0  0  0
  132.8940  134.6560  151.2600 C   0  0  0  0  0  3  0  0  0  0  0  0
  134.0070  135.3640  151.7320 C   0  0  0  0  0  0  0  0  0  0  0  0
  135.2500  135.1550  151.1100 C   0  0  0  0  0  0  0  0  0  0  0  0
  135.3500  134.2800  150.0150 C   0  0  0  0  0  3  0  0  0  0  0  0
  133.9480  136.2730  152.7540 O   0  0  0  0  0  0  0  0  0  0  0  0
  133.9610  135.7870  154.0900 C   0  0  0  0  0  1  0  0  0  0  0  0
  136.4390  135.7660  151.4250 O   0  0  0  0  0  0  0  0  0  0  0  0
  137.3140  136.0450  150.3370 C   0  0  0  0  0  1  0  0  0  0  0  0
  1  3  1  0  0  0  0
  2  1  2  0  0  0  0
  3  4  1  0  0  0  0
  3 14  1  0  0  0  0
  5  1  1  0  0  0  0
  6  5  1  0  0  0  0
  6  7  1  0  0  0  0
  7  9  1  0  0  0  0
  7  8  2  0  0  0  0
  9 10  1  1  0  0  0
  9 11  1  0  0  0  0
 13 11  1  0  0  0  0
 13 12  1  0  0  0  0
 14 15  1  0  0  0  0
 15 20  2  0  0  0  0
 15 16  1  0  0  0  0
 16 17  2  0  0  0  0
 17 18  1  0  0  0  0
 18 21  1  0  0  0  0
 19 23  1  0  0  0  0
 19 18  2  0  0  0  0
 20 19  1  0  0  0  0
 21 22  1  0  0  0  0
 24 23  1  0  0  0  0
M  END
>  <MODEL>
7

>  <REMARK>
 VINA RESULT:    -5.897      9.145     11.748
 INTER + INTRA:         -10.081
 INTER:                  -8.408
 INTRA:                  -1.673
 UNBOUND:                -0.737
  Name = CHEMBL1558073
  14 active torsions:
  status: ('A' for Active; 'I' for Inactive)
    1  A    between atoms: C_1  and  C_2
    2  A    between atoms: C_2  and  C_3
    3  A    between atoms: C_3  and  C_4
    4  A    between atoms: C_4  and  C_5
    5  A    between atoms: C_4  and  C_6
    6  A    between atoms: C_6  and  O_8
    7  A    between atoms: O_8  and  C_9
    8  A    between atoms: C_9  and  C_10
    9  A    between atoms: N_12  and  C_13
   10  A    between atoms: C_13  and  C_14
   11  A    between atoms: C_17  and  O_18
   12  A    between atoms: O_18  and  C_19
   13  A    between atoms: C_20  and  O_21
   14  A    between atoms: O_21  and  C_22
                            x       y       z     vdW  Elec       q    Type
                         _______ _______ _______ _____ _____    ______ ____

>  <TORSDO>
F 10

>  <SCORE>
-5.897

>  <RMSD_LB>
9.145

>  <RMSD_UB>
11.748

$$$$
CHEMBL1558073
 OpenBabel10172500553D

 24 24  0  0  1  0  0  0  0  0999 V2000
  144.9310  138.4110  149.6840 C   0  0  0  0  0  0  0  0  0  0  0  0
  144.3540  137.9980  148.6800 O   0  0  0  0  0  0  0  0  0  0  0  0
  144.5740  138.0440  150.9640 N   0  0  0  0  0  0  0  0  0  0  0  0
  145.0200  138.4760  151.7290 H   0  0  0  0  0  0  0  0  0  0  0  0
  146.1060  139.3890  149.5940 C   0  0  0  0  0  2  0  0  0  0  0  0
  145.7040  140.7150  149.2410 O   0  0  0  0  0  0  0  0  0  0  0  0
  146.4370  141.6990  149.8310 C   0  0  0  0  0  0  0  0  0  0  0  0
  146.8170  142.7140  149.2600 O   0  0  0  0  0  0  0  0  0  0  0  0
  146.6980  141.3710  151.2950 C   0  0  2  0  0  3  0  0  0  0  0  0
  145.8310  142.2850  152.1550 C   0  0  0  0  0  1  0  0  0  0  0  0
  148.2030  141.5060  151.5990 C   0  0  0  0  0  2  0  0  0  0  0  0
  149.0160  141.9080  153.9530 C   0  0  0  0  0  1  0  0  0  0  0  0
  148.6280  140.8590  152.9200 C   0  0  0  0  0  2  0  0  0  0  0  0
  143.5630  137.0410  151.2140 C   0  0  0  0  0  2  0  0  0  0  0  0
  142.5520  137.4990  152.2320 C   0  0  0  0  0  0  0  0  0  0  0  0
  142.9130  137.6250  153.5770 C   0  0  0  0  0  3  0  0  0  0  0  0
  141.9910  138.0860  154.5260 C   0  0  0  0  0  3  0  0  0  0  0  0
  140.6840  138.4260  154.1560 C   0  0  0  0  0  0  0  0  0  0  0  0
  140.3160  138.3090  152.8050 C   0  0  0  0  0  0  0  0  0  0  0  0
  141.2400  137.8250  151.8630 C   0  0  0  0  0  3  0  0  0  0  0  0
  139.7290  138.8420  155.0450 O   0  0  0  0  0  0  0  0  0  0  0  0
  139.2580  137.9130  156.0120 C   0  0  0  0  0  1  0  0  0  0  0  0
  139.0830  138.5800  152.2620 O   0  0  0  0  0  0  0  0  0  0  0  0
  138.1540  137.5030  152.2320 C   0  0  0  0  0  1  0  0  0  0  0  0
  1  3  1  0  0  0  0
  2  1  2  0  0  0  0
  3 14  1  0  0  0  0
  3  4  1  0  0  0  0
  5  1  1  0  0  0  0
  6  5  1  0  0  0  0
  6  7  1  0  0  0  0
  7  9  1  0  0  0  0
  8  7  2  0  0  0  0
  9 11  1  0  0  0  0
  9 10  1  1  0  0  0
 11 13  1  0  0  0  0
 13 12  1  0  0  0  0
 14 15  1  0  0  0  0
 15 16  1  0  0  0  0
 16 17  2  0  0  0  0
 18 17  1  0  0  0  0
 18 21  1  0  0  0  0
 19 18  2  0  0  0  0
 20 15  2  0  0  0  0
 20 19  1  0  0  0  0
 21 22  1  0  0  0  0
 23 19  1  0  0  0  0
 24 23  1  0  0  0  0
M  END
>  <MODEL>
8

>  <REMARK>
 VINA RESULT:    -5.850      2.650      3.388
 INTER + INTRA:         -10.007
 INTER:                  -9.264
 INTRA:                  -0.743
 UNBOUND:                -0.737
  Name = CHEMBL1558073
  14 active torsions:
  status: ('A' for Active; 'I' for Inactive)
    1  A    between atoms: C_1  and  C_2
    2  A    between atoms: C_2  and  C_3
    3  A    between atoms: C_3  and  C_4
    4  A    between atoms: C_4  and  C_5
    5  A    between atoms: C_4  and  C_6
    6  A    between atoms: C_6  and  O_8
    7  A    between atoms: O_8  and  C_9
    8  A    between atoms: C_9  and  C_10
    9  A    between atoms: N_12  and  C_13
   10  A    between atoms: C_13  and  C_14
   11  A    between atoms: C_17  and  O_18
   12  A    between atoms: O_18  and  C_19
   13  A    between atoms: C_20  and  O_21
   14  A    between atoms: O_21  and  C_22
                            x       y       z     vdW  Elec       q    Type
                         _______ _______ _______ _____ _____    ______ ____

>  <TORSDO>
F 10

>  <SCORE>
-5.850

>  <RMSD_LB>
2.650

>  <RMSD_UB>
3.388

$$$$
CHEMBL1558073
 OpenBabel10172500553D

 24 24  0  0  1  0  0  0  0  0999 V2000
  135.4700  135.8780  152.9200 C   0  0  0  0  0  0  0  0  0  0  0  0
  134.3150  136.2750  152.7770 O   0  0  0  0  0  0  0  0  0  0  0  0
  135.9330  135.3050  154.0860 N   0  0  0  0  0  0  0  0  0  0  0  0
  136.8900  135.0870  154.1650 H   0  0  0  0  0  0  0  0  0  0  0  0
  136.5080  135.9980  151.7990 C   0  0  0  0  0  2  0  0  0  0  0  0
  136.4350  134.9280  150.8540 O   0  0  0  0  0  0  0  0  0  0  0  0
  136.4250  135.3310  149.5530 C   0  0  0  0  0  0  0  0  0  0  0  0
  137.4170  135.7010  148.9360 O   0  0  0  0  0  0  0  0  0  0  0  0
  135.0210  135.2370  148.9710 C   0  0  2  0  0  3  0  0  0  0  0  0
  134.3850  136.6230  149.0190 C   0  0  0  0  0  1  0  0  0  0  0  0
  134.2100  134.1740  149.7380 C   0  0  0  0  0  2  0  0  0  0  0  0
  133.3550  133.1050  147.6180 C   0  0  0  0  0  1  0  0  0  0  0  0
  134.0200  132.8650  148.9660 C   0  0  0  0  0  2  0  0  0  0  0  0
  135.0500  135.0160  155.1930 C   0  0  0  0  0  2  0  0  0  0  0  0
  135.5940  135.5310  156.4990 C   0  0  0  0  0  0  0  0  0  0  0  0
  136.5200  136.5790  156.5130 C   0  0  0  0  0  3  0  0  0  0  0  0
  137.0050  137.0910  157.7240 C   0  0  0  0  0  3  0  0  0  0  0  0
  136.5810  136.5650  158.9510 C   0  0  0  0  0  0  0  0  0  0  0  0
  135.6450  135.5170  158.9450 C   0  0  0  0  0  0  0  0  0  0  0  0
  135.1810  134.9950  157.7260 C   0  0  0  0  0  3  0  0  0  0  0  0
  137.0500  136.9980  160.1620 O   0  0  0  0  0  0  0  0  0  0  0  0
  137.0400  138.3940  160.4290 C   0  0  0  0  0  1  0  0  0  0  0  0
  135.1290  134.8710  160.0420 O   0  0  0  0  0  0  0  0  0  0  0  0
  133.8730  135.3390  160.5190 C   0  0  0  0  0  1  0  0  0  0  0  0
  1  3  1  0  0  0  0
  2  1  2  0  0  0  0
  3  4  1  0  0  0  0
  3 14  1  0  0  0  0
  5  1  1  0  0  0  0
  6  5  1  0  0  0  0
  7  6  1  0  0  0  0
  8  7  2  0  0  0  0
  9 10  1  1  0  0  0
  9  7  1  0  0  0  0
  9 11  1  0  0  0  0
 12 13  1  0  0  0  0
 13 11  1  0  0  0  0
 14 15  1  0  0  0  0
 15 16  2  0  0  0  0
 15 20  1  0  0  0  0
 16 17  1  0  0  0  0
 17 18  2  0  0  0  0
 18 21  1  0  0  0  0
 19 18  1  0  0  0  0
 19 23  1  0  0  0  0
 20 19  2  0  0  0  0
 21 22  1  0  0  0  0
 23 24  1  0  0  0  0
M  END
>  <MODEL>
9

>  <REMARK>
 VINA RESULT:    -5.807      9.017     11.065
 INTER + INTRA:          -9.939
 INTER:                  -9.202
 INTRA:                  -0.737
 UNBOUND:                -0.737
  Name = CHEMBL1558073
  14 active torsions:
  status: ('A' for Active; 'I' for Inactive)
    1  A    between atoms: C_1  and  C_2
    2  A    between atoms: C_2  and  C_3
    3  A    between atoms: C_3  and  C_4
    4  A    between atoms: C_4  and  C_5
    5  A    between atoms: C_4  and  C_6
    6  A    between atoms: C_6  and  O_8
    7  A    between atoms: O_8  and  C_9
    8  A    between atoms: C_9  and  C_10
    9  A    between atoms: N_12  and  C_13
   10  A    between atoms: C_13  and  C_14
   11  A    between atoms: C_17  and  O_18
   12  A    between atoms: O_18  and  C_19
   13  A    between atoms: C_20  and  O_21
   14  A    between atoms: O_21  and  C_22
                            x       y       z     vdW  Elec       q    Type
                         _______ _______ _______ _____ _____    ______ ____

>  <TORSDO>
F 10

>  <SCORE>
-5.807

>  <RMSD_LB>
9.017

>  <RMSD_UB>
11.065

$$$$
