CHEMBL177809
 OpenBabel10172500493D

 24 24  0  0  0  0  0  0  0  0999 V2000
  136.3380  135.9050  151.3890 C   0  0  0  0  0  0  0  0  0  0  0  0
  135.6620  136.6200  152.1230 O   0  0  0  0  0  0  0  0  0  0  0  0
  137.5180  136.3110  150.8110 N   0  0  0  0  0  0  0  0  0  0  0  0
  138.0180  135.6880  150.2350 H   0  0  0  0  0  0  0  0  0  0  0  0
  135.9460  134.4790  151.0750 C   0  0  0  0  0  2  0  0  0  0  0  0
  134.6890  134.0460  151.8290 C   0  0  0  0  0  2  0  0  0  0  0  0
  133.7750  133.1560  150.9830 C   0  0  0  0  0  2  0  0  0  0  0  0
  132.9410  133.9950  150.0160 C   0  0  0  0  0  2  0  0  0  0  0  0
  132.9290  133.3880  148.6130 C   0  0  0  0  0  2  0  0  0  0  0  0
  134.1620  132.5150  148.3900 C   0  0  0  0  0  2  0  0  0  0  0  0
  136.0790  132.2160  146.7910 C   0  0  0  0  0  1  0  0  0  0  0  0
  135.1900  133.2200  147.5090 C   0  0  0  0  0  2  0  0  0  0  0  0
  138.0300  137.6450  151.0420 C   0  0  0  0  0  2  0  0  0  0  0  0
  139.0610  137.7170  152.1510 C   0  0  0  0  0  0  0  0  0  0  0  0
  138.6570  138.0250  153.4740 C   0  0  0  0  0  3  0  0  0  0  0  0
  139.5900  138.1930  154.4980 C   0  0  0  0  0  0  0  0  0  0  0  0
  140.9470  138.0520  154.2010 C   0  0  0  0  0  0  0  0  0  0  0  0
  141.3800  137.7600  152.9160 C   0  0  0  0  0  3  0  0  0  0  0  0
  140.4430  137.6070  151.8910 C   0  0  0  0  0  0  0  0  0  0  0  0
  141.2330  137.2700  149.9670 I   0  0  0  0  0  0  0  0  0  0  0  0
  139.3160  138.5070  155.8040 O   0  0  0  0  0  0  0  0  0  0  0  0
  138.1530  137.9160  156.3750 C   0  0  0  0  0  1  0  0  0  0  0  0
  141.8930  138.2270  155.1760 O   0  0  0  0  0  0  0  0  0  0  0  0
  142.5680  137.5880  155.2930 H   0  0  0  0  0  0  0  0  0  0  0  0
  1  2  2  0  0  0  0
  3 13  1  0  0  0  0
  3  1  1  0  0  0  0
  4  3  1  0  0  0  0
  5  1  1  0  0  0  0
  5  6  1  0  0  0  0
  7  6  1  0  0  0  0
  8  7  1  0  0  0  0
  9  8  1  0  0  0  0
 10  9  1  0  0  0  0
 11 12  1  0  0  0  0
 12 10  1  0  0  0  0
 13 14  1  0  0  0  0
 14 15  1  0  0  0  0
 15 16  2  0  0  0  0
 16 21  1  0  0  0  0
 17 16  1  0  0  0  0
 17 23  1  0  0  0  0
 18 17  2  0  0  0  0
 19 14  2  0  0  0  0
 19 18  1  0  0  0  0
 20 19  1  0  0  0  0
 21 22  1  0  0  0  0
 23 24  1  0  0  0  0
M  END
>  <MODEL>
1

>  <REMARK>
 VINA RESULT:    -6.363      0.000      0.000
 INTER + INTRA:         -10.984
 INTER:                 -10.001
 INTRA:                  -0.983
 UNBOUND:                -0.715
  Name = CHEMBL177809
  13 active torsions:
  status: ('A' for Active; 'I' for Inactive)
    1  A    between atoms: C_1  and  C_2
    2  A    between atoms: C_2  and  C_3
    3  A    between atoms: C_3  and  C_4
    4  A    between atoms: C_4  and  C_5
    5  A    between atoms: C_5  and  C_6
    6  A    between atoms: C_6  and  C_7
    7  A    between atoms: C_7  and  C_8
    8  A    between atoms: C_8  and  C_9
    9  A    between atoms: N_11  and  C_12
   10  A    between atoms: C_12  and  C_13
   11  A    between atoms: C_15  and  O_16
   12  A    between atoms: O_16  and  C_17
   13  A    between atoms: C_18  and  O_19
                            x       y       z     vdW  Elec       q    Type
                         _______ _______ _______ _____ _____    ______ ____

>  <TORSDO>
F 11

>  <SCORE>
-6.363

>  <RMSD_LB>
0.000

>  <RMSD_UB>
0.000

$$$$
CHEMBL177809
 OpenBabel10172500493D

 24 24  0  0  0  0  0  0  0  0999 V2000
  147.6700  138.2980  153.1930 C   0  0  0  0  0  0  0  0  0  0  0  0
  148.2370  137.2130  153.1090 O   0  0  0  0  0  0  0  0  0  0  0  0
  146.3280  138.4360  153.4620 N   0  0  0  0  0  0  0  0  0  0  0  0
  145.9330  139.3350  153.5220 H   0  0  0  0  0  0  0  0  0  0  0  0
  148.4150  139.6050  153.0400 C   0  0  0  0  0  2  0  0  0  0  0  0
  147.9330  140.6650  154.0290 C   0  0  0  0  0  2  0  0  0  0  0  0
  147.6180  142.0000  153.3510 C   0  0  0  0  0  2  0  0  0  0  0  0
  146.1090  142.2310  153.2760 C   0  0  0  0  0  2  0  0  0  0  0  0
  145.5290  141.7170  151.9580 C   0  0  0  0  0  2  0  0  0  0  0  0
  145.8480  142.6780  150.8150 C   0  0  0  0  0  2  0  0  0  0  0  0
  146.6400  140.4640  149.9230 C   0  0  0  0  0  1  0  0  0  0  0  0
  146.5530  141.9620  149.6670 C   0  0  0  0  0  2  0  0  0  0  0  0
  145.4930  137.2690  153.6550 C   0  0  0  0  0  2  0  0  0  0  0  0
  144.1420  137.3700  152.9760 C   0  0  0  0  0  0  0  0  0  0  0  0
  142.9880  137.6790  153.7390 C   0  0  0  0  0  3  0  0  0  0  0  0
  141.7160  137.6860  153.1630 C   0  0  0  0  0  0  0  0  0  0  0  0
  141.5920  137.3800  151.8060 C   0  0  0  0  0  0  0  0  0  0  0  0
  142.6970  137.0640  151.0300 C   0  0  0  0  0  3  0  0  0  0  0  0
  143.9660  137.0440  151.6140 C   0  0  0  0  0  0  0  0  0  0  0  0
  145.5480  136.4470  150.3570 I   0  0  0  0  0  0  0  0  0  0  0  0
  140.5340  137.9520  153.8040 O   0  0  0  0  0  0  0  0  0  0  0  0
  140.4460  139.1930  154.4960 C   0  0  0  0  0  1  0  0  0  0  0  0
  140.3590  137.3590  151.2090 O   0  0  0  0  0  0  0  0  0  0  0  0
  139.6610  137.8760  151.5600 H   0  0  0  0  0  0  0  0  0  0  0  0
  1  3  1  0  0  0  0
  2  1  2  0  0  0  0
  3  4  1  0  0  0  0
  3 13  1  0  0  0  0
  5  1  1  0  0  0  0
  5  6  1  0  0  0  0
  7  6  1  0  0  0  0
  8  7  1  0  0  0  0
  9  8  1  0  0  0  0
 10  9  1  0  0  0  0
 12 11  1  0  0  0  0
 12 10  1  0  0  0  0
 14 13  1  0  0  0  0
 14 15  1  0  0  0  0
 16 15  2  0  0  0  0
 16 21  1  0  0  0  0
 17 16  1  0  0  0  0
 18 19  1  0  0  0  0
 18 17  2  0  0  0  0
 19 14  2  0  0  0  0
 20 19  1  0  0  0  0
 21 22  1  0  0  0  0
 23 24  1  0  0  0  0
 23 17  1  0  0  0  0
M  END
>  <MODEL>
2

>  <REMARK>
 VINA RESULT:    -6.253      6.149     10.449
 INTER + INTRA:         -10.806
 INTER:                  -9.356
 INTRA:                  -1.450
 UNBOUND:                -0.715
  Name = CHEMBL177809
  13 active torsions:
  status: ('A' for Active; 'I' for Inactive)
    1  A    between atoms: C_1  and  C_2
    2  A    between atoms: C_2  and  C_3
    3  A    between atoms: C_3  and  C_4
    4  A    between atoms: C_4  and  C_5
    5  A    between atoms: C_5  and  C_6
    6  A    between atoms: C_6  and  C_7
    7  A    between atoms: C_7  and  C_8
    8  A    between atoms: C_8  and  C_9
    9  A    between atoms: N_11  and  C_12
   10  A    between atoms: C_12  and  C_13
   11  A    between atoms: C_15  and  O_16
   12  A    between atoms: O_16  and  C_17
   13  A    between atoms: C_18  and  O_19
                            x       y       z     vdW  Elec       q    Type
                         _______ _______ _______ _____ _____    ______ ____

>  <TORSDO>
F 11

>  <SCORE>
-6.253

>  <RMSD_LB>
6.149

>  <RMSD_UB>
10.449

$$$$
CHEMBL177809
 OpenBabel10172500493D

 24 24  0  0  0  0  0  0  0  0999 V2000
  147.0970  139.0860  154.5140 C   0  0  0  0  0  0  0  0  0  0  0  0
  146.1560  139.2540  155.2830 O   0  0  0  0  0  0  0  0  0  0  0  0
  147.2210  137.9910  153.6910 N   0  0  0  0  0  0  0  0  0  0  0  0
  147.9980  137.9170  153.0910 H   0  0  0  0  0  0  0  0  0  0  0  0
  148.2090  140.1020  154.3750 C   0  0  0  0  0  2  0  0  0  0  0  0
  147.6790  141.5330  154.2940 C   0  0  0  0  0  2  0  0  0  0  0  0
  147.4750  142.0020  152.8520 C   0  0  0  0  0  2  0  0  0  0  0  0
  146.0090  142.3450  152.5930 C   0  0  0  0  0  2  0  0  0  0  0  0
  145.7260  142.5010  151.0990 C   0  0  0  0  0  2  0  0  0  0  0  0
  145.0080  141.2710  150.5510 C   0  0  0  0  0  2  0  0  0  0  0  0
  146.6860  139.6650  149.5870 C   0  0  0  0  0  1  0  0  0  0  0  0
  145.8180  140.0010  150.7920 C   0  0  0  0  0  2  0  0  0  0  0  0
  146.2180  136.9470  153.7000 C   0  0  0  0  0  2  0  0  0  0  0  0
  145.6180  136.6690  152.3360 C   0  0  0  0  0  0  0  0  0  0  0  0
  146.4090  136.0700  151.3250 C   0  0  0  0  0  3  0  0  0  0  0  0
  145.9190  135.8870  150.0310 C   0  0  0  0  0  0  0  0  0  0  0  0
  144.6190  136.3080  149.7400 C   0  0  0  0  0  0  0  0  0  0  0  0
  143.8190  136.9060  150.7010 C   0  0  0  0  0  3  0  0  0  0  0  0
  144.3200  137.1010  151.9910 C   0  0  0  0  0  0  0  0  0  0  0  0
  143.0460  138.1140  153.3290 I   0  0  0  0  0  0  0  0  0  0  0  0
  146.5960  135.3370  148.9730 O   0  0  0  0  0  0  0  0  0  0  0  0
  147.5940  136.1480  148.3610 C   0  0  0  0  0  1  0  0  0  0  0  0
  144.1090  136.1620  148.4770 O   0  0  0  0  0  0  0  0  0  0  0  0
  144.6180  135.7400  147.8130 H   0  0  0  0  0  0  0  0  0  0  0  0
  1  2  2  0  0  0  0
  3 13  1  0  0  0  0
  3  1  1  0  0  0  0
  4  3  1  0  0  0  0
  5  1  1  0  0  0  0
  6  5  1  0  0  0  0
  7  6  1  0  0  0  0
  8  7  1  0  0  0  0
  9  8  1  0  0  0  0
 10 12  1  0  0  0  0
 10  9  1  0  0  0  0
 11 12  1  0  0  0  0
 14 13  1  0  0  0  0
 15 14  2  0  0  0  0
 16 15  1  0  0  0  0
 17 16  2  0  0  0  0
 17 18  1  0  0  0  0
 18 19  2  0  0  0  0
 19 14  1  0  0  0  0
 19 20  1  0  0  0  0
 21 16  1  0  0  0  0
 22 21  1  0  0  0  0
 23 17  1  0  0  0  0
 24 23  1  0  0  0  0
M  END
>  <MODEL>
3

>  <REMARK>
 VINA RESULT:    -6.115      7.990     11.195
 INTER + INTRA:         -10.584
 INTER:                  -9.018
 INTRA:                  -1.566
 UNBOUND:                -0.715
  Name = CHEMBL177809
  13 active torsions:
  status: ('A' for Active; 'I' for Inactive)
    1  A    between atoms: C_1  and  C_2
    2  A    between atoms: C_2  and  C_3
    3  A    between atoms: C_3  and  C_4
    4  A    between atoms: C_4  and  C_5
    5  A    between atoms: C_5  and  C_6
    6  A    between atoms: C_6  and  C_7
    7  A    between atoms: C_7  and  C_8
    8  A    between atoms: C_8  and  C_9
    9  A    between atoms: N_11  and  C_12
   10  A    between atoms: C_12  and  C_13
   11  A    between atoms: C_15  and  O_16
   12  A    between atoms: O_16  and  C_17
   13  A    between atoms: C_18  and  O_19
                            x       y       z     vdW  Elec       q    Type
                         _______ _______ _______ _____ _____    ______ ____

>  <TORSDO>
F 11

>  <SCORE>
-6.115

>  <RMSD_LB>
7.990

>  <RMSD_UB>
11.195

$$$$
CHEMBL177809
 OpenBabel10172500493D

 24 24  0  0  0  0  0  0  0  0999 V2000
  139.1410  138.4270  154.9150 C   0  0  0  0  0  0  0  0  0  0  0  0
  140.1160  138.6090  155.6390 O   0  0  0  0  0  0  0  0  0  0  0  0
  137.9770  137.8340  155.3420 N   0  0  0  0  0  0  0  0  0  0  0  0
  137.2270  137.7210  154.7130 H   0  0  0  0  0  0  0  0  0  0  0  0
  139.1210  138.8780  153.4710 C   0  0  0  0  0  2  0  0  0  0  0  0
  138.6910  137.7600  152.5220 C   0  0  0  0  0  2  0  0  0  0  0  0
  139.6840  137.5480  151.3770 C   0  0  0  0  0  2  0  0  0  0  0  0
  141.1080  137.4020  151.9100 C   0  0  0  0  0  2  0  0  0  0  0  0
  142.1050  137.1470  150.7810 C   0  0  0  0  0  2  0  0  0  0  0  0
  141.3790  136.9110  149.4590 C   0  0  0  0  0  2  0  0  0  0  0  0
  143.3240  135.3710  149.0450 C   0  0  0  0  0  1  0  0  0  0  0  0
  141.8440  135.6200  148.7920 C   0  0  0  0  0  2  0  0  0  0  0  0
  137.8440  137.3720  156.7070 C   0  0  0  0  0  2  0  0  0  0  0  0
  136.7010  136.3990  156.9110 C   0  0  0  0  0  0  0  0  0  0  0  0
  136.1160  135.7500  155.7950 C   0  0  0  0  0  3  0  0  0  0  0  0
  135.0010  134.9210  155.9370 C   0  0  0  0  0  0  0  0  0  0  0  0
  134.4600  134.7370  157.2110 C   0  0  0  0  0  0  0  0  0  0  0  0
  134.9990  135.3620  158.3250 C   0  0  0  0  0  3  0  0  0  0  0  0
  136.1060  136.2020  158.1760 C   0  0  0  0  0  0  0  0  0  0  0  0
  136.7650  137.1750  159.9250 I   0  0  0  0  0  0  0  0  0  0  0  0
  134.3460  134.2590  154.9320 O   0  0  0  0  0  0  0  0  0  0  0  0
  134.7580  134.5490  153.6000 C   0  0  0  0  0  1  0  0  0  0  0  0
  133.3560  133.9460  157.3880 O   0  0  0  0  0  0  0  0  0  0  0  0
  132.5010  134.3290  157.3850 H   0  0  0  0  0  0  0  0  0  0  0  0
  1  3  1  0  0  0  0
  1  2  2  0  0  0  0
  3 13  1  0  0  0  0
  4  3  1  0  0  0  0
  5  1  1  0  0  0  0
  6  5  1  0  0  0  0
  7  8  1  0  0  0  0
  7  6  1  0  0  0  0
  9  8  1  0  0  0  0
 10  9  1  0  0  0  0
 12 11  1  0  0  0  0
 12 10  1  0  0  0  0
 13 14  1  0  0  0  0
 14 19  1  0  0  0  0
 15 16  1  0  0  0  0
 15 14  2  0  0  0  0
 16 17  2  0  0  0  0
 17 23  1  0  0  0  0
 17 18  1  0  0  0  0
 19 18  2  0  0  0  0
 19 20  1  0  0  0  0
 21 16  1  0  0  0  0
 22 21  1  0  0  0  0
 24 23  1  0  0  0  0
M  END
>  <MODEL>
4

>  <REMARK>
 VINA RESULT:    -6.091      4.088      7.333
 INTER + INTRA:         -10.544
 INTER:                  -9.769
 INTRA:                  -0.775
 UNBOUND:                -0.715
  Name = CHEMBL177809
  13 active torsions:
  status: ('A' for Active; 'I' for Inactive)
    1  A    between atoms: C_1  and  C_2
    2  A    between atoms: C_2  and  C_3
    3  A    between atoms: C_3  and  C_4
    4  A    between atoms: C_4  and  C_5
    5  A    between atoms: C_5  and  C_6
    6  A    between atoms: C_6  and  C_7
    7  A    between atoms: C_7  and  C_8
    8  A    between atoms: C_8  and  C_9
    9  A    between atoms: N_11  and  C_12
   10  A    between atoms: C_12  and  C_13
   11  A    between atoms: C_15  and  O_16
   12  A    between atoms: O_16  and  C_17
   13  A    between atoms: C_18  and  O_19
                            x       y       z     vdW  Elec       q    Type
                         _______ _______ _______ _____ _____    ______ ____

>  <TORSDO>
F 11

>  <SCORE>
-6.091

>  <RMSD_LB>
4.088

>  <RMSD_UB>
7.333

$$$$
CHEMBL177809
 OpenBabel10172500493D

 24 24  0  0  0  0  0  0  0  0999 V2000
  144.9470  137.9550  150.2110 C   0  0  0  0  0  0  0  0  0  0  0  0
  144.8520  137.2160  149.2350 O   0  0  0  0  0  0  0  0  0  0  0  0
  144.0720  137.9290  151.2720 N   0  0  0  0  0  0  0  0  0  0  0  0
  144.2050  138.5450  152.0280 H   0  0  0  0  0  0  0  0  0  0  0  0
  146.0730  138.9540  150.3530 C   0  0  0  0  0  2  0  0  0  0  0  0
  145.9700  140.0900  149.3360 C   0  0  0  0  0  2  0  0  0  0  0  0
  145.6820  141.4420  149.9940 C   0  0  0  0  0  2  0  0  0  0  0  0
  146.9650  142.2560  150.1520 C   0  0  0  0  0  2  0  0  0  0  0  0
  147.4060  142.3270  151.6140 C   0  0  0  0  0  2  0  0  0  0  0  0
  146.1960  142.3410  152.5460 C   0  0  0  0  0  2  0  0  0  0  0  0
  147.4110  140.3850  153.5570 C   0  0  0  0  0  1  0  0  0  0  0  0
  146.4680  141.5500  153.8220 C   0  0  0  0  0  2  0  0  0  0  0  0
  142.9570  137.0060  151.2830 C   0  0  0  0  0  2  0  0  0  0  0  0
  141.7130  137.5650  151.9460 C   0  0  0  0  0  0  0  0  0  0  0  0
  141.7520  137.9610  153.3050 C   0  0  0  0  0  3  0  0  0  0  0  0
  140.6030  138.3890  153.9720 C   0  0  0  0  0  0  0  0  0  0  0  0
  139.3950  138.4230  153.2720 C   0  0  0  0  0  0  0  0  0  0  0  0
  139.3160  138.0340  151.9430 C   0  0  0  0  0  3  0  0  0  0  0  0
  140.4660  137.5920  151.2850 C   0  0  0  0  0  0  0  0  0  0  0  0
  140.1950  136.9300  149.3030 I   0  0  0  0  0  0  0  0  0  0  0  0
  140.5200  138.7780  155.2830 O   0  0  0  0  0  0  0  0  0  0  0  0
  140.5480  137.7430  156.2610 C   0  0  0  0  0  1  0  0  0  0  0  0
  138.2420  138.8200  153.8970 O   0  0  0  0  0  0  0  0  0  0  0  0
  137.4100  138.5640  153.5500 H   0  0  0  0  0  0  0  0  0  0  0  0
  1  5  1  0  0  0  0
  1  3  1  0  0  0  0
  2  1  2  0  0  0  0
  3 13  1  0  0  0  0
  3  4  1  0  0  0  0
  6  7  1  0  0  0  0
  6  5  1  0  0  0  0
  7  8  1  0  0  0  0
  8  9  1  0  0  0  0
  9 10  1  0  0  0  0
 10 12  1  0  0  0  0
 11 12  1  0  0  0  0
 13 14  1  0  0  0  0
 14 15  1  0  0  0  0
 15 16  2  0  0  0  0
 16 21  1  0  0  0  0
 17 23  1  0  0  0  0
 17 16  1  0  0  0  0
 18 17  2  0  0  0  0
 19 18  1  0  0  0  0
 19 14  2  0  0  0  0
 20 19  1  0  0  0  0
 21 22  1  0  0  0  0
 24 23  1  0  0  0  0
M  END
>  <MODEL>
5

>  <REMARK>
 VINA RESULT:    -5.980      4.959      9.768
 INTER + INTRA:         -10.365
 INTER:                  -9.286
 INTRA:                  -1.079
 UNBOUND:                -0.715
  Name = CHEMBL177809
  13 active torsions:
  status: ('A' for Active; 'I' for Inactive)
    1  A    between atoms: C_1  and  C_2
    2  A    between atoms: C_2  and  C_3
    3  A    between atoms: C_3  and  C_4
    4  A    between atoms: C_4  and  C_5
    5  A    between atoms: C_5  and  C_6
    6  A    between atoms: C_6  and  C_7
    7  A    between atoms: C_7  and  C_8
    8  A    between atoms: C_8  and  C_9
    9  A    between atoms: N_11  and  C_12
   10  A    between atoms: C_12  and  C_13
   11  A    between atoms: C_15  and  O_16
   12  A    between atoms: O_16  and  C_17
   13  A    between atoms: C_18  and  O_19
                            x       y       z     vdW  Elec       q    Type
                         _______ _______ _______ _____ _____    ______ ____

>  <TORSDO>
F 11

>  <SCORE>
-5.980

>  <RMSD_LB>
4.959

>  <RMSD_UB>
9.768

$$$$
CHEMBL177809
 OpenBabel10172500493D

 24 24  0  0  0  0  0  0  0  0999 V2000
  139.6300  138.0610  155.4730 C   0  0  0  0  0  0  0  0  0  0  0  0
  140.2320  137.3710  156.2900 O   0  0  0  0  0  0  0  0  0  0  0  0
  138.2600  138.1750  155.4360 N   0  0  0  0  0  0  0  0  0  0  0  0
  137.8370  138.7490  154.7580 H   0  0  0  0  0  0  0  0  0  0  0  0
  140.3550  138.8900  154.4350 C   0  0  0  0  0  2  0  0  0  0  0  0
  140.3640  138.2190  153.0620 C   0  0  0  0  0  2  0  0  0  0  0  0
  141.7410  137.6630  152.6900 C   0  0  0  0  0  2  0  0  0  0  0  0
  141.8200  137.3570  151.1960 C   0  0  0  0  0  2  0  0  0  0  0  0
  140.4370  137.3840  150.5450 C   0  0  0  0  0  2  0  0  0  0  0  0
  140.4600  138.2000  149.2550 C   0  0  0  0  0  2  0  0  0  0  0  0
  139.8240  140.4620  150.1490 C   0  0  0  0  0  1  0  0  0  0  0  0
  139.3980  139.2950  149.2700 C   0  0  0  0  0  2  0  0  0  0  0  0
  137.4370  137.4550  156.3840 C   0  0  0  0  0  2  0  0  0  0  0  0
  136.5190  136.4350  155.7410 C   0  0  0  0  0  0  0  0  0  0  0  0
  136.3420  136.4290  154.3350 C   0  0  0  0  0  3  0  0  0  0  0  0
  135.4330  135.5670  153.7200 C   0  0  0  0  0  0  0  0  0  0  0  0
  134.6880  134.6960  154.5190 C   0  0  0  0  0  0  0  0  0  0  0  0
  134.8290  134.6790  155.8980 C   0  0  0  0  0  3  0  0  0  0  0  0
  135.7290  135.5540  156.5100 C   0  0  0  0  0  0  0  0  0  0  0  0
  135.7720  135.5050  158.6160 I   0  0  0  0  0  0  0  0  0  0  0  0
  135.1670  135.4860  152.3780 O   0  0  0  0  0  0  0  0  0  0  0  0
  136.0870  134.7400  151.5870 C   0  0  0  0  0  1  0  0  0  0  0  0
  133.7730  133.8470  153.9530 O   0  0  0  0  0  0  0  0  0  0  0  0
  133.0920  134.1890  153.4100 H   0  0  0  0  0  0  0  0  0  0  0  0
  1  2  2  0  0  0  0
  3  1  1  0  0  0  0
  3 13  1  0  0  0  0
  4  3  1  0  0  0  0
  5  1  1  0  0  0  0
  6  5  1  0  0  0  0
  7  6  1  0  0  0  0
  8  7  1  0  0  0  0
  9  8  1  0  0  0  0
 10 12  1  0  0  0  0
 10  9  1  0  0  0  0
 12 11  1  0  0  0  0
 14 13  1  0  0  0  0
 14 19  1  0  0  0  0
 15 14  2  0  0  0  0
 16 15  1  0  0  0  0
 16 17  2  0  0  0  0
 17 18  1  0  0  0  0
 18 19  2  0  0  0  0
 19 20  1  0  0  0  0
 21 16  1  0  0  0  0
 22 21  1  0  0  0  0
 23 17  1  0  0  0  0
 24 23  1  0  0  0  0
M  END
>  <MODEL>
6

>  <REMARK>
 VINA RESULT:    -5.969      3.521      7.350
 INTER + INTRA:         -10.348
 INTER:                  -9.255
 INTRA:                  -1.093
 UNBOUND:                -0.715
  Name = CHEMBL177809
  13 active torsions:
  status: ('A' for Active; 'I' for Inactive)
    1  A    between atoms: C_1  and  C_2
    2  A    between atoms: C_2  and  C_3
    3  A    between atoms: C_3  and  C_4
    4  A    between atoms: C_4  and  C_5
    5  A    between atoms: C_5  and  C_6
    6  A    between atoms: C_6  and  C_7
    7  A    between atoms: C_7  and  C_8
    8  A    between atoms: C_8  and  C_9
    9  A    between atoms: N_11  and  C_12
   10  A    between atoms: C_12  and  C_13
   11  A    between atoms: C_15  and  O_16
   12  A    between atoms: O_16  and  C_17
   13  A    between atoms: C_18  and  O_19
                            x       y       z     vdW  Elec       q    Type
                         _______ _______ _______ _____ _____    ______ ____

>  <TORSDO>
F 11

>  <SCORE>
-5.969

>  <RMSD_LB>
3.521

>  <RMSD_UB>
7.350

$$$$
CHEMBL177809
 OpenBabel10172500493D

 24 24  0  0  0  0  0  0  0  0999 V2000
  145.8800  137.2560  152.6450 C   0  0  0  0  0  0  0  0  0  0  0  0
  146.4320  137.3850  151.5570 O   0  0  0  0  0  0  0  0  0  0  0  0
  144.5210  137.1110  152.7960 N   0  0  0  0  0  0  0  0  0  0  0  0
  144.1380  137.0060  153.6970 H   0  0  0  0  0  0  0  0  0  0  0  0
  146.6610  137.2120  153.9400 C   0  0  0  0  0  2  0  0  0  0  0  0
  146.8320  138.5980  154.5600 C   0  0  0  0  0  2  0  0  0  0  0  0
  148.1680  139.2460  154.1880 C   0  0  0  0  0  2  0  0  0  0  0  0
  148.1030  140.7630  154.3560 C   0  0  0  0  0  2  0  0  0  0  0  0
  147.7550  141.4590  153.0400 C   0  0  0  0  0  2  0  0  0  0  0  0
  146.4630  142.2600  153.1750 C   0  0  0  0  0  2  0  0  0  0  0  0
  145.8940  140.9790  151.0880 C   0  0  0  0  0  1  0  0  0  0  0  0
  145.6730  142.2660  151.8700 C   0  0  0  0  0  2  0  0  0  0  0  0
  143.6480  137.1110  151.6410 C   0  0  0  0  0  2  0  0  0  0  0  0
  142.2160  137.4900  151.9610 C   0  0  0  0  0  0  0  0  0  0  0  0
  141.8770  137.9400  153.2610 C   0  0  0  0  0  3  0  0  0  0  0  0
  140.5540  138.2060  153.6170 C   0  0  0  0  0  0  0  0  0  0  0  0
  139.5520  138.0190  152.6620 C   0  0  0  0  0  0  0  0  0  0  0  0
  139.8440  137.5710  151.3830 C   0  0  0  0  0  3  0  0  0  0  0  0
  141.1690  137.2930  151.0360 C   0  0  0  0  0  0  0  0  0  0  0  0
  141.4690  136.5190  149.0990 I   0  0  0  0  0  0  0  0  0  0  0  0
  140.1090  138.6270  154.8430 O   0  0  0  0  0  0  0  0  0  0  0  0
  140.7700  138.0880  155.9840 C   0  0  0  0  0  1  0  0  0  0  0  0
  138.2390  138.2520  152.9790 O   0  0  0  0  0  0  0  0  0  0  0  0
  137.8930  137.9440  153.7930 H   0  0  0  0  0  0  0  0  0  0  0  0
  1  3  1  0  0  0  0
  1  5  1  0  0  0  0
  2  1  2  0  0  0  0
  3  4  1  0  0  0  0
  5  6  1  0  0  0  0
  7  8  1  0  0  0  0
  7  6  1  0  0  0  0
  9 10  1  0  0  0  0
  9  8  1  0  0  0  0
 11 12  1  0  0  0  0
 12 10  1  0  0  0  0
 13 14  1  0  0  0  0
 13  3  1  0  0  0  0
 14 15  1  0  0  0  0
 15 16  2  0  0  0  0
 16 21  1  0  0  0  0
 17 23  1  0  0  0  0
 17 16  1  0  0  0  0
 18 17  2  0  0  0  0
 19 18  1  0  0  0  0
 19 14  2  0  0  0  0
 20 19  1  0  0  0  0
 21 22  1  0  0  0  0
 23 24  1  0  0  0  0
M  END
>  <MODEL>
7

>  <REMARK>
 VINA RESULT:    -5.941      4.969      9.975
 INTER + INTRA:         -10.303
 INTER:                  -9.295
 INTRA:                  -1.008
 UNBOUND:                -0.715
  Name = CHEMBL177809
  13 active torsions:
  status: ('A' for Active; 'I' for Inactive)
    1  A    between atoms: C_1  and  C_2
    2  A    between atoms: C_2  and  C_3
    3  A    between atoms: C_3  and  C_4
    4  A    between atoms: C_4  and  C_5
    5  A    between atoms: C_5  and  C_6
    6  A    between atoms: C_6  and  C_7
    7  A    between atoms: C_7  and  C_8
    8  A    between atoms: C_8  and  C_9
    9  A    between atoms: N_11  and  C_12
   10  A    between atoms: C_12  and  C_13
   11  A    between atoms: C_15  and  O_16
   12  A    between atoms: O_16  and  C_17
   13  A    between atoms: C_18  and  O_19
                            x       y       z     vdW  Elec       q    Type
                         _______ _______ _______ _____ _____    ______ ____

>  <TORSDO>
F 11

>  <SCORE>
-5.941

>  <RMSD_LB>
4.969

>  <RMSD_UB>
9.975

$$$$
CHEMBL177809
 OpenBabel10172500493D

 24 24  0  0  0  0  0  0  0  0999 V2000
  138.4490  135.9380  149.3430 C   0  0  0  0  0  0  0  0  0  0  0  0
  139.3190  135.7280  148.5020 O   0  0  0  0  0  0  0  0  0  0  0  0
  138.5880  136.8410  150.3710 N   0  0  0  0  0  0  0  0  0  0  0  0
  137.8510  136.9680  151.0110 H   0  0  0  0  0  0  0  0  0  0  0  0
  137.1110  135.2340  149.3040 C   0  0  0  0  0  2  0  0  0  0  0  0
  136.4540  135.1640  150.6820 C   0  0  0  0  0  2  0  0  0  0  0  0
  134.9470  135.4300  150.6270 C   0  0  0  0  0  2  0  0  0  0  0  0
  134.2000  134.5370  151.6160 C   0  0  0  0  0  2  0  0  0  0  0  0
  133.7550  133.2280  150.9640 C   0  0  0  0  0  2  0  0  0  0  0  0
  133.3080  133.4650  149.5230 C   0  0  0  0  0  2  0  0  0  0  0  0
  134.6190  133.2410  147.3890 C   0  0  0  0  0  1  0  0  0  0  0  0
  133.9940  132.4990  148.5620 C   0  0  0  0  0  2  0  0  0  0  0  0
  139.8090  137.6040  150.5190 C   0  0  0  0  0  2  0  0  0  0  0  0
  140.2360  137.7920  151.9620 C   0  0  0  0  0  0  0  0  0  0  0  0
  139.2890  138.2010  152.9330 C   0  0  0  0  0  3  0  0  0  0  0  0
  139.6680  138.4740  154.2480 C   0  0  0  0  0  0  0  0  0  0  0  0
  141.0130  138.3380  154.6020 C   0  0  0  0  0  0  0  0  0  0  0  0
  141.9690  137.9490  153.6760 C   0  0  0  0  0  3  0  0  0  0  0  0
  141.5870  137.6900  152.3570 C   0  0  0  0  0  0  0  0  0  0  0  0
  143.1470  137.2110  151.0250 I   0  0  0  0  0  0  0  0  0  0  0  0
  138.8460  138.8900  155.2630 O   0  0  0  0  0  0  0  0  0  0  0  0
  137.6550  138.1380  155.4710 C   0  0  0  0  0  1  0  0  0  0  0  0
  141.4260  138.6150  155.8780 O   0  0  0  0  0  0  0  0  0  0  0  0
  140.8260  138.9880  156.4930 H   0  0  0  0  0  0  0  0  0  0  0  0
  1  3  1  0  0  0  0
  2  1  2  0  0  0  0
  3 13  1  0  0  0  0
  3  4  1  0  0  0  0
  5  1  1  0  0  0  0
  5  6  1  0  0  0  0
  7  6  1  0  0  0  0
  7  8  1  0  0  0  0
  9  8  1  0  0  0  0
 10  9  1  0  0  0  0
 11 12  1  0  0  0  0
 12 10  1  0  0  0  0
 13 14  1  0  0  0  0
 14 19  2  0  0  0  0
 14 15  1  0  0  0  0
 15 16  2  0  0  0  0
 16 17  1  0  0  0  0
 16 21  1  0  0  0  0
 17 23  1  0  0  0  0
 18 17  2  0  0  0  0
 19 18  1  0  0  0  0
 20 19  1  0  0  0  0
 21 22  1  0  0  0  0
 23 24  1  0  0  0  0
M  END
>  <MODEL>
8

>  <REMARK>
 VINA RESULT:    -5.938      1.606      2.034
 INTER + INTRA:         -10.298
 INTER:                  -9.194
 INTRA:                  -1.104
 UNBOUND:                -0.715
  Name = CHEMBL177809
  13 active torsions:
  status: ('A' for Active; 'I' for Inactive)
    1  A    between atoms: C_1  and  C_2
    2  A    between atoms: C_2  and  C_3
    3  A    between atoms: C_3  and  C_4
    4  A    between atoms: C_4  and  C_5
    5  A    between atoms: C_5  and  C_6
    6  A    between atoms: C_6  and  C_7
    7  A    between atoms: C_7  and  C_8
    8  A    between atoms: C_8  and  C_9
    9  A    between atoms: N_11  and  C_12
   10  A    between atoms: C_12  and  C_13
   11  A    between atoms: C_15  and  O_16
   12  A    between atoms: O_16  and  C_17
   13  A    between atoms: C_18  and  O_19
                            x       y       z     vdW  Elec       q    Type
                         _______ _______ _______ _____ _____    ______ ____

>  <TORSDO>
F 11

>  <SCORE>
-5.938

>  <RMSD_LB>
1.606

>  <RMSD_UB>
2.034

$$$$
CHEMBL177809
 OpenBabel10172500493D

 24 24  0  0  0  0  0  0  0  0999 V2000
  139.3560  138.3870  155.3250 C   0  0  0  0  0  0  0  0  0  0  0  0
  140.3150  138.2260  156.0740 O   0  0  0  0  0  0  0  0  0  0  0  0
  138.0510  138.1800  155.7070 N   0  0  0  0  0  0  0  0  0  0  0  0
  137.3240  138.3330  155.0600 H   0  0  0  0  0  0  0  0  0  0  0  0
  139.5240  138.8680  153.9010 C   0  0  0  0  0  2  0  0  0  0  0  0
  140.3320  137.8880  153.0510 C   0  0  0  0  0  2  0  0  0  0  0  0
  141.2110  138.5960  152.0180 C   0  0  0  0  0  2  0  0  0  0  0  0
  142.6500  138.0870  152.0860 C   0  0  0  0  0  2  0  0  0  0  0  0
  143.0060  137.6010  153.4900 C   0  0  0  0  0  2  0  0  0  0  0  0
  144.4460  137.9680  153.8420 C   0  0  0  0  0  2  0  0  0  0  0  0
  146.5210  136.8920  152.9160 C   0  0  0  0  0  1  0  0  0  0  0  0
  145.3440  136.7350  153.8670 C   0  0  0  0  0  2  0  0  0  0  0  0
  137.7380  137.7410  157.0500 C   0  0  0  0  0  2  0  0  0  0  0  0
  136.6880  136.6490  157.1020 C   0  0  0  0  0  0  0  0  0  0  0  0
  136.1500  136.1260  155.8990 C   0  0  0  0  0  3  0  0  0  0  0  0
  135.1150  135.1890  155.9130 C   0  0  0  0  0  0  0  0  0  0  0  0
  134.6080  134.7660  157.1430 C   0  0  0  0  0  0  0  0  0  0  0  0
  135.1030  135.2620  158.3400 C   0  0  0  0  0  3  0  0  0  0  0  0
  136.1290  136.2110  158.3210 C   0  0  0  0  0  0  0  0  0  0  0  0
  136.7190  136.9630  160.1980 I   0  0  0  0  0  0  0  0  0  0  0  0
  134.5100  134.6300  154.8170 O   0  0  0  0  0  0  0  0  0  0  0  0
  134.1420  135.5180  153.7660 C   0  0  0  0  0  1  0  0  0  0  0  0
  133.5800  133.8620  157.1960 O   0  0  0  0  0  0  0  0  0  0  0  0
  132.9440  133.8360  156.5090 H   0  0  0  0  0  0  0  0  0  0  0  0
  1  3  1  0  0  0  0
  1  2  2  0  0  0  0
  3 13  1  0  0  0  0
  4  3  1  0  0  0  0
  5  1  1  0  0  0  0
  6  5  1  0  0  0  0
  7  8  1  0  0  0  0
  7  6  1  0  0  0  0
  8  9  1  0  0  0  0
  9 10  1  0  0  0  0
 10 12  1  0  0  0  0
 11 12  1  0  0  0  0
 13 14  1  0  0  0  0
 14 19  1  0  0  0  0
 15 16  1  0  0  0  0
 15 14  2  0  0  0  0
 16 17  2  0  0  0  0
 17 23  1  0  0  0  0
 17 18  1  0  0  0  0
 19 18  2  0  0  0  0
 19 20  1  0  0  0  0
 21 16  1  0  0  0  0
 22 21  1  0  0  0  0
 24 23  1  0  0  0  0
M  END
>  <MODEL>
9

>  <REMARK>
 VINA RESULT:    -5.927      4.411      8.572
 INTER + INTRA:         -10.280
 INTER:                  -9.565
 INTRA:                  -0.715
 UNBOUND:                -0.715
  Name = CHEMBL177809
  13 active torsions:
  status: ('A' for Active; 'I' for Inactive)
    1  A    between atoms: C_1  and  C_2
    2  A    between atoms: C_2  and  C_3
    3  A    between atoms: C_3  and  C_4
    4  A    between atoms: C_4  and  C_5
    5  A    between atoms: C_5  and  C_6
    6  A    between atoms: C_6  and  C_7
    7  A    between atoms: C_7  and  C_8
    8  A    between atoms: C_8  and  C_9
    9  A    between atoms: N_11  and  C_12
   10  A    between atoms: C_12  and  C_13
   11  A    between atoms: C_15  and  O_16
   12  A    between atoms: O_16  and  C_17
   13  A    between atoms: C_18  and  O_19
                            x       y       z     vdW  Elec       q    Type
                         _______ _______ _______ _____ _____    ______ ____

>  <TORSDO>
F 11

>  <SCORE>
-5.927

>  <RMSD_LB>
4.411

>  <RMSD_UB>
8.572

$$$$
