CHEMBL77656
 OpenBabel10172500003D

 23 23  0  0  0  0  0  0  0  0999 V2000
  144.7830  138.6120  154.3070 C   0  0  0  0  0  0  0  0  0  0  0  0
  144.5390  139.8130  154.3710 O   0  0  0  0  0  0  0  0  0  0  0  0
  143.8120  137.6490  154.1560 N   0  0  0  0  0  0  0  0  0  0  0  0
  144.0800  136.7020  154.1520 H   0  0  0  0  0  0  0  0  0  0  0  0
  146.2000  138.0830  154.4040 C   0  0  0  0  0  2  0  0  0  0  0  0
  147.1800  139.0580  155.0540 C   0  0  0  0  0  2  0  0  0  0  0  0
  148.1600  139.6470  154.0400 C   0  0  0  0  0  2  0  0  0  0  0  0
  148.3680  141.1380  154.2810 C   0  0  0  0  0  2  0  0  0  0  0  0
  147.8850  141.9500  153.0820 C   0  0  0  0  0  2  0  0  0  0  0  0
  146.4020  142.2780  153.2120 C   0  0  0  0  0  2  0  0  0  0  0  0
  146.7300  142.4150  150.7290 C   0  0  0  0  0  1  0  0  0  0  0  0
  145.7150  142.2660  151.8490 C   0  0  0  0  0  2  0  0  0  0  0  0
  142.4130  137.9770  154.0000 C   0  0  0  0  0  2  0  0  0  0  0  0
  141.9320  137.6350  152.6140 C   0  0  0  0  0  0  0  0  0  0  0  0
  142.8400  137.1690  151.6570 C   0  0  0  0  0  3  0  0  0  0  0  0
  142.4190  136.8510  150.3630 C   0  0  0  0  0  3  0  0  0  0  0  0
  141.0750  136.9520  150.0060 C   0  0  0  0  0  0  0  0  0  0  0  0
  140.1400  137.3410  150.9850 C   0  0  0  0  0  0  0  0  0  0  0  0
  140.5790  137.7260  152.2620 C   0  0  0  0  0  3  0  0  0  0  0  0
  140.5960  136.7320  148.7430 O   0  0  0  0  0  0  0  0  0  0  0  0
  141.4150  136.0240  147.8270 C   0  0  0  0  0  1  0  0  0  0  0  0
  138.7810  137.4200  150.7860 O   0  0  0  0  0  0  0  0  0  0  0  0
  138.3480  138.6710  150.2470 C   0  0  0  0  0  1  0  0  0  0  0  0
  1  2  2  0  0  0  0
  1  5  1  0  0  0  0
  3  1  1  0  0  0  0
  4  3  1  0  0  0  0
  5  6  1  0  0  0  0
  7  8  1  0  0  0  0
  7  6  1  0  0  0  0
  9 10  1  0  0  0  0
  9  8  1  0  0  0  0
 11 12  1  0  0  0  0
 12 10  1  0  0  0  0
 13  3  1  0  0  0  0
 14 13  1  0  0  0  0
 15 14  2  0  0  0  0
 16 15  1  0  0  0  0
 17 16  2  0  0  0  0
 17 18  1  0  0  0  0
 18 19  2  0  0  0  0
 19 14  1  0  0  0  0
 20 17  1  0  0  0  0
 21 20  1  0  0  0  0
 22 18  1  0  0  0  0
 23 22  1  0  0  0  0
M  END
>  <MODEL>
1

>  <REMARK>
 VINA RESULT:    -6.009      0.000      0.000
 INTER + INTRA:         -10.774
 INTER:                  -9.904
 INTRA:                  -0.870
 UNBOUND:                -0.901
  Name = CHEMBL77656
  14 active torsions:
  status: ('A' for Active; 'I' for Inactive)
    1  A    between atoms: C_1  and  C_2
    2  A    between atoms: C_2  and  C_3
    3  A    between atoms: C_3  and  C_4
    4  A    between atoms: C_4  and  C_5
    5  A    between atoms: C_5  and  C_6
    6  A    between atoms: C_6  and  C_7
    7  A    between atoms: C_7  and  C_8
    8  A    between atoms: C_8  and  C_9
    9  A    between atoms: N_11  and  C_12
   10  A    between atoms: C_12  and  C_13
   11  A    between atoms: C_16  and  O_17
   12  A    between atoms: O_17  and  C_18
   13  A    between atoms: C_19  and  O_20
   14  A    between atoms: O_20  and  C_21
                            x       y       z     vdW  Elec       q    Type
                         _______ _______ _______ _____ _____    ______ ____

>  <TORSDO>
F 11

>  <SCORE>
-6.009

>  <RMSD_LB>
0.000

>  <RMSD_UB>
0.000

$$$$
CHEMBL77656
 OpenBabel10172500003D

 23 23  0  0  0  0  0  0  0  0999 V2000
  134.2790  135.5220  153.5510 C   0  0  0  0  0  0  0  0  0  0  0  0
  133.5130  134.9640  154.3320 O   0  0  0  0  0  0  0  0  0  0  0  0
  134.0830  135.5550  152.1910 N   0  0  0  0  0  0  0  0  0  0  0  0
  134.7620  135.9860  151.6230 H   0  0  0  0  0  0  0  0  0  0  0  0
  135.5360  136.2190  154.0340 C   0  0  0  0  0  2  0  0  0  0  0  0
  136.2920  135.4510  155.1170 C   0  0  0  0  0  2  0  0  0  0  0  0
  136.2020  136.1400  156.4770 C   0  0  0  0  0  2  0  0  0  0  0  0
  135.6800  135.1830  157.5430 C   0  0  0  0  0  2  0  0  0  0  0  0
  136.5370  135.2620  158.8040 C   0  0  0  0  0  2  0  0  0  0  0  0
  135.9180  136.2160  159.8200 C   0  0  0  0  0  2  0  0  0  0  0  0
  137.5550  138.1040  159.6150 C   0  0  0  0  0  1  0  0  0  0  0  0
  136.9920  137.0330  160.5320 C   0  0  0  0  0  2  0  0  0  0  0  0
  132.9150  134.9800  151.5620 C   0  0  0  0  0  2  0  0  0  0  0  0
  133.2420  134.4730  150.1820 C   0  0  0  0  0  0  0  0  0  0  0  0
  133.6000  133.1320  150.0000 C   0  0  0  0  0  3  0  0  0  0  0  0
  133.9140  132.6390  148.7310 C   0  0  0  0  0  3  0  0  0  0  0  0
  133.8370  133.4620  147.6080 C   0  0  0  0  0  0  0  0  0  0  0  0
  133.3970  134.7900  147.7680 C   0  0  0  0  0  0  0  0  0  0  0  0
  133.1520  135.2980  149.0540 C   0  0  0  0  0  3  0  0  0  0  0  0
  134.1980  133.0760  146.3450 O   0  0  0  0  0  0  0  0  0  0  0  0
  135.5740  133.0960  146.0040 C   0  0  0  0  0  1  0  0  0  0  0  0
  133.2150  135.6870  146.7420 O   0  0  0  0  0  0  0  0  0  0  0  0
  132.7530  136.9700  147.1710 C   0  0  0  0  0  1  0  0  0  0  0  0
  1  5  1  0  0  0  0
  1  2  2  0  0  0  0
  3  1  1  0  0  0  0
  4  3  1  0  0  0  0
  5  6  1  0  0  0  0
  6  7  1  0  0  0  0
  7  8  1  0  0  0  0
  8  9  1  0  0  0  0
  9 10  1  0  0  0  0
 10 12  1  0  0  0  0
 11 12  1  0  0  0  0
 13  3  1  0  0  0  0
 14 13  1  0  0  0  0
 15 14  1  0  0  0  0
 16 15  2  0  0  0  0
 17 18  2  0  0  0  0
 17 16  1  0  0  0  0
 18 19  1  0  0  0  0
 19 14  2  0  0  0  0
 20 17  1  0  0  0  0
 21 20  1  0  0  0  0
 22 23  1  0  0  0  0
 22 18  1  0  0  0  0
M  END
>  <MODEL>
2

>  <REMARK>
 VINA RESULT:    -5.919      9.444     10.746
 INTER + INTRA:         -10.627
 INTER:                  -9.938
 INTRA:                  -0.689
 UNBOUND:                -0.901
  Name = CHEMBL77656
  14 active torsions:
  status: ('A' for Active; 'I' for Inactive)
    1  A    between atoms: C_1  and  C_2
    2  A    between atoms: C_2  and  C_3
    3  A    between atoms: C_3  and  C_4
    4  A    between atoms: C_4  and  C_5
    5  A    between atoms: C_5  and  C_6
    6  A    between atoms: C_6  and  C_7
    7  A    between atoms: C_7  and  C_8
    8  A    between atoms: C_8  and  C_9
    9  A    between atoms: N_11  and  C_12
   10  A    between atoms: C_12  and  C_13
   11  A    between atoms: C_16  and  O_17
   12  A    between atoms: O_17  and  C_18
   13  A    between atoms: C_19  and  O_20
   14  A    between atoms: O_20  and  C_21
                            x       y       z     vdW  Elec       q    Type
                         _______ _______ _______ _____ _____    ______ ____

>  <TORSDO>
F 11

>  <SCORE>
-5.919

>  <RMSD_LB>
9.444

>  <RMSD_UB>
10.746

$$$$
CHEMBL77656
 OpenBabel10172500003D

 23 23  0  0  0  0  0  0  0  0999 V2000
  144.0140  137.8580  149.1700 C   0  0  0  0  0  0  0  0  0  0  0  0
  143.3970  138.5690  148.3820 O   0  0  0  0  0  0  0  0  0  0  0  0
  143.4090  136.9320  149.9880 N   0  0  0  0  0  0  0  0  0  0  0  0
  143.9650  136.4260  150.6230 H   0  0  0  0  0  0  0  0  0  0  0  0
  145.5200  137.9550  149.3160 C   0  0  0  0  0  2  0  0  0  0  0  0
  145.9780  139.0710  150.2530 C   0  0  0  0  0  2  0  0  0  0  0  0
  146.7080  140.1850  149.5030 C   0  0  0  0  0  2  0  0  0  0  0  0
  145.9810  141.5160  149.6560 C   0  0  0  0  0  2  0  0  0  0  0  0
  146.6530  142.3760  150.7230 C   0  0  0  0  0  2  0  0  0  0  0  0
  145.8050  142.4310  151.9890 C   0  0  0  0  0  2  0  0  0  0  0  0
  148.0870  141.8440  152.8470 C   0  0  0  0  0  1  0  0  0  0  0  0
  146.6460  142.1370  153.2280 C   0  0  0  0  0  2  0  0  0  0  0  0
  141.9880  136.6740  149.9480 C   0  0  0  0  0  2  0  0  0  0  0  0
  141.2970  137.2800  151.1420 C   0  0  0  0  0  0  0  0  0  0  0  0
  139.9120  137.4800  151.1180 C   0  0  0  0  0  3  0  0  0  0  0  0
  139.2500  138.0460  152.2110 C   0  0  0  0  0  3  0  0  0  0  0  0
  139.9490  138.3870  153.3690 C   0  0  0  0  0  0  0  0  0  0  0  0
  141.3280  138.1140  153.4350 C   0  0  0  0  0  0  0  0  0  0  0  0
  141.9990  137.6100  152.3090 C   0  0  0  0  0  3  0  0  0  0  0  0
  139.3880  139.0110  154.4500 O   0  0  0  0  0  0  0  0  0  0  0  0
  138.5090  138.2650  155.2770 C   0  0  0  0  0  1  0  0  0  0  0  0
  142.1230  138.3390  154.5350 O   0  0  0  0  0  0  0  0  0  0  0  0
  143.2120  139.2320  154.2870 C   0  0  0  0  0  1  0  0  0  0  0  0
  1  5  1  0  0  0  0
  1  3  1  0  0  0  0
  2  1  2  0  0  0  0
  3  4  1  0  0  0  0
  5  6  1  0  0  0  0
  7  8  1  0  0  0  0
  7  6  1  0  0  0  0
  8  9  1  0  0  0  0
  9 10  1  0  0  0  0
 10 12  1  0  0  0  0
 11 12  1  0  0  0  0
 13  3  1  0  0  0  0
 13 14  1  0  0  0  0
 14 19  1  0  0  0  0
 15 14  2  0  0  0  0
 15 16  1  0  0  0  0
 16 17  2  0  0  0  0
 17 18  1  0  0  0  0
 17 20  1  0  0  0  0
 18 22  1  0  0  0  0
 19 18  2  0  0  0  0
 20 21  1  0  0  0  0
 23 22  1  0  0  0  0
M  END
>  <MODEL>
3

>  <REMARK>
 VINA RESULT:    -5.822      2.286      4.513
 INTER + INTRA:         -10.467
 INTER:                  -9.322
 INTRA:                  -1.145
 UNBOUND:                -0.901
  Name = CHEMBL77656
  14 active torsions:
  status: ('A' for Active; 'I' for Inactive)
    1  A    between atoms: C_1  and  C_2
    2  A    between atoms: C_2  and  C_3
    3  A    between atoms: C_3  and  C_4
    4  A    between atoms: C_4  and  C_5
    5  A    between atoms: C_5  and  C_6
    6  A    between atoms: C_6  and  C_7
    7  A    between atoms: C_7  and  C_8
    8  A    between atoms: C_8  and  C_9
    9  A    between atoms: N_11  and  C_12
   10  A    between atoms: C_12  and  C_13
   11  A    between atoms: C_16  and  O_17
   12  A    between atoms: O_17  and  C_18
   13  A    between atoms: C_19  and  O_20
   14  A    between atoms: O_20  and  C_21
                            x       y       z     vdW  Elec       q    Type
                         _______ _______ _______ _____ _____    ______ ____

>  <TORSDO>
F 11

>  <SCORE>
-5.822

>  <RMSD_LB>
2.286

>  <RMSD_UB>
4.513

$$$$
CHEMBL77656
 OpenBabel10172500003D

 23 23  0  0  0  0  0  0  0  0999 V2000
  144.6430  137.6290  148.7440 C   0  0  0  0  0  0  0  0  0  0  0  0
  143.8950  138.0500  147.8660 O   0  0  0  0  0  0  0  0  0  0  0  0
  144.2210  136.8260  149.7770 N   0  0  0  0  0  0  0  0  0  0  0  0
  144.8710  136.5600  150.4670 H   0  0  0  0  0  0  0  0  0  0  0  0
  146.1180  137.9800  148.7670 C   0  0  0  0  0  2  0  0  0  0  0  0
  146.3980  139.4800  148.6850 C   0  0  0  0  0  2  0  0  0  0  0  0
  146.4790  140.1240  150.0680 C   0  0  0  0  0  2  0  0  0  0  0  0
  145.8270  141.5020  150.0700 C   0  0  0  0  0  2  0  0  0  0  0  0
  146.7930  142.5540  150.6090 C   0  0  0  0  0  2  0  0  0  0  0  0
  147.9450  141.8970  151.3600 C   0  0  0  0  0  2  0  0  0  0  0  0
  148.7660  141.1650  153.6140 C   0  0  0  0  0  1  0  0  0  0  0  0
  147.7660  142.0330  152.8690 C   0  0  0  0  0  2  0  0  0  0  0  0
  142.8590  136.3560  149.8870 C   0  0  0  0  0  2  0  0  0  0  0  0
  142.1440  137.0400  151.0230 C   0  0  0  0  0  0  0  0  0  0  0  0
  142.8460  137.3740  152.1870 C   0  0  0  0  0  3  0  0  0  0  0  0
  142.2050  138.0040  153.2570 C   0  0  0  0  0  3  0  0  0  0  0  0
  140.8570  138.3520  153.1740 C   0  0  0  0  0  0  0  0  0  0  0  0
  140.1620  138.0950  151.9760 C   0  0  0  0  0  0  0  0  0  0  0  0
  140.7930  137.4000  150.9330 C   0  0  0  0  0  3  0  0  0  0  0  0
  140.1390  138.9010  154.2020 O   0  0  0  0  0  0  0  0  0  0  0  0
  139.8440  138.0880  155.3260 C   0  0  0  0  0  1  0  0  0  0  0  0
  138.8520  138.4420  151.7370 O   0  0  0  0  0  0  0  0  0  0  0  0
  137.9420  137.3420  151.8010 C   0  0  0  0  0  1  0  0  0  0  0  0
  1  5  1  0  0  0  0
  1  3  1  0  0  0  0
  2  1  2  0  0  0  0
  3 13  1  0  0  0  0
  3  4  1  0  0  0  0
  6  5  1  0  0  0  0
  6  7  1  0  0  0  0
  7  8  1  0  0  0  0
  8  9  1  0  0  0  0
  9 10  1  0  0  0  0
 10 12  1  0  0  0  0
 12 11  1  0  0  0  0
 13 14  1  0  0  0  0
 14 15  1  0  0  0  0
 15 16  2  0  0  0  0
 17 16  1  0  0  0  0
 17 20  1  0  0  0  0
 18 17  2  0  0  0  0
 19 14  2  0  0  0  0
 19 18  1  0  0  0  0
 20 21  1  0  0  0  0
 22 23  1  0  0  0  0
 22 18  1  0  0  0  0
M  END
>  <MODEL>
4

>  <REMARK>
 VINA RESULT:    -5.429      2.309      4.260
 INTER + INTRA:          -9.821
 INTER:                  -8.893
 INTRA:                  -0.928
 UNBOUND:                -0.901
  Name = CHEMBL77656
  14 active torsions:
  status: ('A' for Active; 'I' for Inactive)
    1  A    between atoms: C_1  and  C_2
    2  A    between atoms: C_2  and  C_3
    3  A    between atoms: C_3  and  C_4
    4  A    between atoms: C_4  and  C_5
    5  A    between atoms: C_5  and  C_6
    6  A    between atoms: C_6  and  C_7
    7  A    between atoms: C_7  and  C_8
    8  A    between atoms: C_8  and  C_9
    9  A    between atoms: N_11  and  C_12
   10  A    between atoms: C_12  and  C_13
   11  A    between atoms: C_16  and  O_17
   12  A    between atoms: O_17  and  C_18
   13  A    between atoms: C_19  and  O_20
   14  A    between atoms: O_20  and  C_21
                            x       y       z     vdW  Elec       q    Type
                         _______ _______ _______ _____ _____    ______ ____

>  <TORSDO>
F 11

>  <SCORE>
-5.429

>  <RMSD_LB>
2.309

>  <RMSD_UB>
4.260

$$$$
CHEMBL77656
 OpenBabel10172500003D

 23 23  0  0  0  0  0  0  0  0999 V2000
  145.3970  141.5230  150.3070 C   0  0  0  0  0  0  0  0  0  0  0  0
  144.3660  140.9970  150.7140 O   0  0  0  0  0  0  0  0  0  0  0  0
  145.9560  141.2450  149.0820 N   0  0  0  0  0  0  0  0  0  0  0  0
  146.8070  141.6770  148.8390 H   0  0  0  0  0  0  0  0  0  0  0  0
  146.1590  142.5310  151.1450 C   0  0  0  0  0  2  0  0  0  0  0  0
  146.1690  142.2120  152.6380 C   0  0  0  0  0  2  0  0  0  0  0  0
  147.5790  141.9340  153.1560 C   0  0  0  0  0  2  0  0  0  0  0  0
  148.2410  140.8100  152.3670 C   0  0  0  0  0  2  0  0  0  0  0  0
  148.0990  139.4800  153.1020 C   0  0  0  0  0  2  0  0  0  0  0  0
  148.2060  139.6800  154.6100 C   0  0  0  0  0  2  0  0  0  0  0  0
  146.5850  137.7710  154.4750 C   0  0  0  0  0  1  0  0  0  0  0  0
  147.1280  138.8900  155.3470 C   0  0  0  0  0  2  0  0  0  0  0  0
  145.3400  140.3430  148.1350 C   0  0  0  0  0  2  0  0  0  0  0  0
  145.8730  138.9440  148.3000 C   0  0  0  0  0  0  0  0  0  0  0  0
  147.1240  138.6080  147.7690 C   0  0  0  0  0  3  0  0  0  0  0  0
  147.6370  137.3160  147.9040 C   0  0  0  0  0  3  0  0  0  0  0  0
  146.9330  136.3390  148.6070 C   0  0  0  0  0  0  0  0  0  0  0  0
  145.7120  136.6890  149.2160 C   0  0  0  0  0  0  0  0  0  0  0  0
  145.1690  137.9680  149.0180 C   0  0  0  0  0  3  0  0  0  0  0  0
  147.3310  135.0350  148.7200 O   0  0  0  0  0  0  0  0  0  0  0  0
  148.6260  134.7680  149.2350 C   0  0  0  0  0  1  0  0  0  0  0  0
  144.9490  135.8440  149.9890 O   0  0  0  0  0  0  0  0  0  0  0  0
  143.5840  135.7590  149.5760 C   0  0  0  0  0  1  0  0  0  0  0  0
  1  2  2  0  0  0  0
  1  5  1  0  0  0  0
  3  1  1  0  0  0  0
  4  3  1  0  0  0  0
  5  6  1  0  0  0  0
  6  7  1  0  0  0  0
  8  9  1  0  0  0  0
  8  7  1  0  0  0  0
  9 10  1  0  0  0  0
 10 12  1  0  0  0  0
 11 12  1  0  0  0  0
 13 14  1  0  0  0  0
 13  3  1  0  0  0  0
 14 19  1  0  0  0  0
 15 16  1  0  0  0  0
 15 14  2  0  0  0  0
 16 17  2  0  0  0  0
 17 20  1  0  0  0  0
 17 18  1  0  0  0  0
 18 22  1  0  0  0  0
 19 18  2  0  0  0  0
 20 21  1  0  0  0  0
 23 22  1  0  0  0  0
M  END
>  <MODEL>
5

>  <REMARK>
 VINA RESULT:    -5.348      3.794      5.466
 INTER + INTRA:          -9.688
 INTER:                  -8.500
 INTRA:                  -1.189
 UNBOUND:                -0.901
  Name = CHEMBL77656
  14 active torsions:
  status: ('A' for Active; 'I' for Inactive)
    1  A    between atoms: C_1  and  C_2
    2  A    between atoms: C_2  and  C_3
    3  A    between atoms: C_3  and  C_4
    4  A    between atoms: C_4  and  C_5
    5  A    between atoms: C_5  and  C_6
    6  A    between atoms: C_6  and  C_7
    7  A    between atoms: C_7  and  C_8
    8  A    between atoms: C_8  and  C_9
    9  A    between atoms: N_11  and  C_12
   10  A    between atoms: C_12  and  C_13
   11  A    between atoms: C_16  and  O_17
   12  A    between atoms: O_17  and  C_18
   13  A    between atoms: C_19  and  O_20
   14  A    between atoms: O_20  and  C_21
                            x       y       z     vdW  Elec       q    Type
                         _______ _______ _______ _____ _____    ______ ____

>  <TORSDO>
F 11

>  <SCORE>
-5.348

>  <RMSD_LB>
3.794

>  <RMSD_UB>
5.466

$$$$
CHEMBL77656
 OpenBabel10172500003D

 23 23  0  0  0  0  0  0  0  0999 V2000
  143.2040  139.1150  149.2610 C   0  0  0  0  0  0  0  0  0  0  0  0
  142.4930  140.1150  149.3070 O   0  0  0  0  0  0  0  0  0  0  0  0
  144.5400  139.1500  148.9400 N   0  0  0  0  0  0  0  0  0  0  0  0
  145.0380  138.3020  148.8840 H   0  0  0  0  0  0  0  0  0  0  0  0
  142.6500  137.7330  149.5490 C   0  0  0  0  0  2  0  0  0  0  0  0
  141.1540  137.7180  149.8540 C   0  0  0  0  0  2  0  0  0  0  0  0
  140.8730  137.4490  151.3310 C   0  0  0  0  0  2  0  0  0  0  0  0
  141.9180  138.1170  152.2180 C   0  0  0  0  0  2  0  0  0  0  0  0
  141.4960  138.0620  153.6840 C   0  0  0  0  0  2  0  0  0  0  0  0
  142.5430  138.7210  154.5750 C   0  0  0  0  0  2  0  0  0  0  0  0
  144.8930  139.5920  154.6540 C   0  0  0  0  0  1  0  0  0  0  0  0
  143.7250  139.2260  153.7540 C   0  0  0  0  0  2  0  0  0  0  0  0
  145.2430  140.3870  148.6810 C   0  0  0  0  0  2  0  0  0  0  0  0
  146.2100  140.6980  149.7940 C   0  0  0  0  0  0  0  0  0  0  0  0
  146.6530  142.0120  149.9830 C   0  0  0  0  0  3  0  0  0  0  0  0
  147.5550  142.3250  151.0030 C   0  0  0  0  0  3  0  0  0  0  0  0
  148.0040  141.3410  151.8840 C   0  0  0  0  0  0  0  0  0  0  0  0
  147.5000  140.0330  151.7540 C   0  0  0  0  0  0  0  0  0  0  0  0
  146.6500  139.7110  150.6850 C   0  0  0  0  0  3  0  0  0  0  0  0
  148.9410  141.5510  152.8600 O   0  0  0  0  0  0  0  0  0  0  0  0
  148.4920  141.9050  154.1580 C   0  0  0  0  0  1  0  0  0  0  0  0
  147.8080  138.9850  152.5910 O   0  0  0  0  0  0  0  0  0  0  0  0
  147.4770  137.7020  152.0560 C   0  0  0  0  0  1  0  0  0  0  0  0
  1  2  2  0  0  0  0
  1  5  1  0  0  0  0
  3  1  1  0  0  0  0
  4  3  1  0  0  0  0
  5  6  1  0  0  0  0
  6  7  1  0  0  0  0
  7  8  1  0  0  0  0
  8  9  1  0  0  0  0
  9 10  1  0  0  0  0
 12 10  1  0  0  0  0
 12 11  1  0  0  0  0
 13  3  1  0  0  0  0
 13 14  1  0  0  0  0
 14 15  2  0  0  0  0
 14 19  1  0  0  0  0
 15 16  1  0  0  0  0
 16 17  2  0  0  0  0
 17 20  1  0  0  0  0
 18 17  1  0  0  0  0
 18 22  1  0  0  0  0
 19 18  2  0  0  0  0
 20 21  1  0  0  0  0
 23 22  1  0  0  0  0
M  END
>  <MODEL>
6

>  <REMARK>
 VINA RESULT:    -5.130      2.506      7.385
 INTER + INTRA:          -9.330
 INTER:                  -8.265
 INTRA:                  -1.065
 UNBOUND:                -0.901
  Name = CHEMBL77656
  14 active torsions:
  status: ('A' for Active; 'I' for Inactive)
    1  A    between atoms: C_1  and  C_2
    2  A    between atoms: C_2  and  C_3
    3  A    between atoms: C_3  and  C_4
    4  A    between atoms: C_4  and  C_5
    5  A    between atoms: C_5  and  C_6
    6  A    between atoms: C_6  and  C_7
    7  A    between atoms: C_7  and  C_8
    8  A    between atoms: C_8  and  C_9
    9  A    between atoms: N_11  and  C_12
   10  A    between atoms: C_12  and  C_13
   11  A    between atoms: C_16  and  O_17
   12  A    between atoms: O_17  and  C_18
   13  A    between atoms: C_19  and  O_20
   14  A    between atoms: O_20  and  C_21
                            x       y       z     vdW  Elec       q    Type
                         _______ _______ _______ _____ _____    ______ ____

>  <TORSDO>
F 11

>  <SCORE>
-5.130

>  <RMSD_LB>
2.506

>  <RMSD_UB>
7.385

$$$$
CHEMBL77656
 OpenBabel10172500003D

 23 23  0  0  0  0  0  0  0  0999 V2000
  143.2770  139.1100  149.3020 C   0  0  0  0  0  0  0  0  0  0  0  0
  142.5810  140.1210  149.3240 O   0  0  0  0  0  0  0  0  0  0  0  0
  144.6200  139.1210  149.0030 N   0  0  0  0  0  0  0  0  0  0  0  0
  145.1040  138.2650  148.9660 H   0  0  0  0  0  0  0  0  0  0  0  0
  142.6980  137.7400  149.5950 C   0  0  0  0  0  2  0  0  0  0  0  0
  141.7140  137.2460  148.5350 C   0  0  0  0  0  2  0  0  0  0  0  0
  140.3870  136.8010  149.1480 C   0  0  0  0  0  2  0  0  0  0  0  0
  140.1140  137.5360  150.4560 C   0  0  0  0  0  2  0  0  0  0  0  0
  138.7060  137.2310  150.9610 C   0  0  0  0  0  2  0  0  0  0  0  0
  138.5080  137.7720  152.3730 C   0  0  0  0  0  2  0  0  0  0  0  0
  139.6890  138.6300  154.4110 C   0  0  0  0  0  1  0  0  0  0  0  0
  139.7990  138.3720  152.9180 C   0  0  0  0  0  2  0  0  0  0  0  0
  145.3460  140.3430  148.7440 C   0  0  0  0  0  2  0  0  0  0  0  0
  146.3030  140.6490  149.8660 C   0  0  0  0  0  0  0  0  0  0  0  0
  146.7730  141.9550  150.0440 C   0  0  0  0  0  3  0  0  0  0  0  0
  147.6660  142.2620  151.0740 C   0  0  0  0  0  3  0  0  0  0  0  0
  148.0800  141.2810  151.9750 C   0  0  0  0  0  0  0  0  0  0  0  0
  147.5490  139.9820  151.8540 C   0  0  0  0  0  0  0  0  0  0  0  0
  146.7080  139.6640  150.7770 C   0  0  0  0  0  3  0  0  0  0  0  0
  149.0070  141.4840  152.9610 O   0  0  0  0  0  0  0  0  0  0  0  0
  148.5480  141.8800  154.2440 C   0  0  0  0  0  1  0  0  0  0  0  0
  147.8210  138.9400  152.7100 O   0  0  0  0  0  0  0  0  0  0  0  0
  147.5050  137.6540  152.1720 C   0  0  0  0  0  1  0  0  0  0  0  0
  1  2  2  0  0  0  0
  1  5  1  0  0  0  0
  3  1  1  0  0  0  0
  4  3  1  0  0  0  0
  6  7  1  0  0  0  0
  6  5  1  0  0  0  0
  7  8  1  0  0  0  0
  8  9  1  0  0  0  0
  9 10  1  0  0  0  0
 10 12  1  0  0  0  0
 12 11  1  0  0  0  0
 13  3  1  0  0  0  0
 13 14  1  0  0  0  0
 14 15  2  0  0  0  0
 14 19  1  0  0  0  0
 15 16  1  0  0  0  0
 16 17  2  0  0  0  0
 17 20  1  0  0  0  0
 18 17  1  0  0  0  0
 18 22  1  0  0  0  0
 19 18  2  0  0  0  0
 20 21  1  0  0  0  0
 23 22  1  0  0  0  0
M  END
>  <MODEL>
7

>  <REMARK>
 VINA RESULT:    -4.896      2.683      8.192
 INTER + INTRA:          -8.946
 INTER:                  -8.127
 INTRA:                  -0.819
 UNBOUND:                -0.901
  Name = CHEMBL77656
  14 active torsions:
  status: ('A' for Active; 'I' for Inactive)
    1  A    between atoms: C_1  and  C_2
    2  A    between atoms: C_2  and  C_3
    3  A    between atoms: C_3  and  C_4
    4  A    between atoms: C_4  and  C_5
    5  A    between atoms: C_5  and  C_6
    6  A    between atoms: C_6  and  C_7
    7  A    between atoms: C_7  and  C_8
    8  A    between atoms: C_8  and  C_9
    9  A    between atoms: N_11  and  C_12
   10  A    between atoms: C_12  and  C_13
   11  A    between atoms: C_16  and  O_17
   12  A    between atoms: O_17  and  C_18
   13  A    between atoms: C_19  and  O_20
   14  A    between atoms: O_20  and  C_21
                            x       y       z     vdW  Elec       q    Type
                         _______ _______ _______ _____ _____    ______ ____

>  <TORSDO>
F 11

>  <SCORE>
-4.896

>  <RMSD_LB>
2.683

>  <RMSD_UB>
8.192

$$$$
CHEMBL77656
 OpenBabel10172500003D

 23 23  0  0  0  0  0  0  0  0999 V2000
  144.2280  138.3790  147.5260 C   0  0  0  0  0  0  0  0  0  0  0  0
  143.7120  138.9350  146.5610 O   0  0  0  0  0  0  0  0  0  0  0  0
  143.5200  137.6290  148.4360 N   0  0  0  0  0  0  0  0  0  0  0  0
  143.9970  137.2460  149.2070 H   0  0  0  0  0  0  0  0  0  0  0  0
  145.7150  138.4880  147.8040 C   0  0  0  0  0  2  0  0  0  0  0  0
  146.1610  139.8830  148.2370 C   0  0  0  0  0  2  0  0  0  0  0  0
  146.1770  140.0330  149.7580 C   0  0  0  0  0  2  0  0  0  0  0  0
  144.8990  140.6980  150.2560 C   0  0  0  0  0  2  0  0  0  0  0  0
  144.1590  139.7820  151.2270 C   0  0  0  0  0  2  0  0  0  0  0  0
  145.1380  138.8980  151.9920 C   0  0  0  0  0  2  0  0  0  0  0  0
  145.5920  136.5570  151.2180 C   0  0  0  0  0  1  0  0  0  0  0  0
  144.6620  137.4490  152.0220 C   0  0  0  0  0  2  0  0  0  0  0  0
  142.1030  137.3820  148.3000 C   0  0  0  0  0  2  0  0  0  0  0  0
  141.3570  137.8400  149.5260 C   0  0  0  0  0  0  0  0  0  0  0  0
  141.4400  137.0970  150.7100 C   0  0  0  0  0  3  0  0  0  0  0  0
  140.7520  137.4980  151.8580 C   0  0  0  0  0  3  0  0  0  0  0  0
  140.0010  138.6730  151.8650 C   0  0  0  0  0  0  0  0  0  0  0  0
  139.9780  139.4710  150.7050 C   0  0  0  0  0  0  0  0  0  0  0  0
  140.6130  139.0270  149.5340 C   0  0  0  0  0  3  0  0  0  0  0  0
  139.2410  139.0940  152.9230 O   0  0  0  0  0  0  0  0  0  0  0  0
  139.8230  139.0810  154.2160 C   0  0  0  0  0  1  0  0  0  0  0  0
  139.3320  140.6810  150.5950 O   0  0  0  0  0  0  0  0  0  0  0  0
  138.4390  140.7590  149.4820 C   0  0  0  0  0  1  0  0  0  0  0  0
  1  5  1  0  0  0  0
  1  3  1  0  0  0  0
  2  1  2  0  0  0  0
  3  4  1  0  0  0  0
  5  6  1  0  0  0  0
  6  7  1  0  0  0  0
  7  8  1  0  0  0  0
  8  9  1  0  0  0  0
  9 10  1  0  0  0  0
 10 12  1  0  0  0  0
 11 12  1  0  0  0  0
 13  3  1  0  0  0  0
 13 14  1  0  0  0  0
 14 19  2  0  0  0  0
 14 15  1  0  0  0  0
 15 16  2  0  0  0  0
 16 17  1  0  0  0  0
 17 20  1  0  0  0  0
 18 17  2  0  0  0  0
 19 18  1  0  0  0  0
 20 21  1  0  0  0  0
 22 18  1  0  0  0  0
 23 22  1  0  0  0  0
M  END
>  <MODEL>
8

>  <REMARK>
 VINA RESULT:    -4.853      3.138      4.988
 INTER + INTRA:          -8.876
 INTER:                  -6.846
 INTRA:                  -2.030
 UNBOUND:                -0.901
  Name = CHEMBL77656
  14 active torsions:
  status: ('A' for Active; 'I' for Inactive)
    1  A    between atoms: C_1  and  C_2
    2  A    between atoms: C_2  and  C_3
    3  A    between atoms: C_3  and  C_4
    4  A    between atoms: C_4  and  C_5
    5  A    between atoms: C_5  and  C_6
    6  A    between atoms: C_6  and  C_7
    7  A    between atoms: C_7  and  C_8
    8  A    between atoms: C_8  and  C_9
    9  A    between atoms: N_11  and  C_12
   10  A    between atoms: C_12  and  C_13
   11  A    between atoms: C_16  and  O_17
   12  A    between atoms: O_17  and  C_18
   13  A    between atoms: C_19  and  O_20
   14  A    between atoms: O_20  and  C_21
                            x       y       z     vdW  Elec       q    Type
                         _______ _______ _______ _____ _____    ______ ____

>  <TORSDO>
F 11

>  <SCORE>
-4.853

>  <RMSD_LB>
3.138

>  <RMSD_UB>
4.988

$$$$
CHEMBL77656
 OpenBabel10172500003D

 23 23  0  0  0  0  0  0  0  0999 V2000
  143.5900  139.2450  148.7980 C   0  0  0  0  0  0  0  0  0  0  0  0
  143.9960  140.0320  147.9470 O   0  0  0  0  0  0  0  0  0  0  0  0
  144.4220  138.5420  149.6370 N   0  0  0  0  0  0  0  0  0  0  0  0
  144.0250  137.8990  150.2680 H   0  0  0  0  0  0  0  0  0  0  0  0
  142.1100  138.9720  148.9850 C   0  0  0  0  0  2  0  0  0  0  0  0
  141.4210  139.9350  149.9500 C   0  0  0  0  0  2  0  0  0  0  0  0
  141.0330  139.2530  151.2600 C   0  0  0  0  0  2  0  0  0  0  0  0
  139.5180  139.2200  151.4340 C   0  0  0  0  0  2  0  0  0  0  0  0
  139.1330  138.3690  152.6410 C   0  0  0  0  0  2  0  0  0  0  0  0
  137.9790  137.4340  152.2980 C   0  0  0  0  0  2  0  0  0  0  0  0
  137.3110  136.0650  150.3050 C   0  0  0  0  0  1  0  0  0  0  0  0
  137.6810  137.4530  150.8020 C   0  0  0  0  0  2  0  0  0  0  0  0
  145.8560  138.7130  149.6290 C   0  0  0  0  0  2  0  0  0  0  0  0
  146.2940  139.6410  150.7320 C   0  0  0  0  0  0  0  0  0  0  0  0
  147.0860  140.7560  150.4310 C   0  0  0  0  0  3  0  0  0  0  0  0
  147.5090  141.6280  151.4370 C   0  0  0  0  0  3  0  0  0  0  0  0
  147.1180  141.4320  152.7610 C   0  0  0  0  0  0  0  0  0  0  0  0
  146.2540  140.3610  153.0620 C   0  0  0  0  0  0  0  0  0  0  0  0
  145.8890  139.4490  152.0590 C   0  0  0  0  0  3  0  0  0  0  0  0
  147.5490  142.1950  153.8120 O   0  0  0  0  0  0  0  0  0  0  0  0
  148.7740  141.8480  154.4380 C   0  0  0  0  0  1  0  0  0  0  0  0
  145.7420  140.0920  154.3100 O   0  0  0  0  0  0  0  0  0  0  0  0
  145.5040  138.7030  154.5490 C   0  0  0  0  0  1  0  0  0  0  0  0
  1  5  1  0  0  0  0
  1  3  1  0  0  0  0
  2  1  2  0  0  0  0
  3  4  1  0  0  0  0
  5  6  1  0  0  0  0
  6  7  1  0  0  0  0
  7  8  1  0  0  0  0
  8  9  1  0  0  0  0
 10  9  1  0  0  0  0
 11 12  1  0  0  0  0
 12 10  1  0  0  0  0
 13  3  1  0  0  0  0
 13 14  1  0  0  0  0
 14 19  1  0  0  0  0
 15 14  2  0  0  0  0
 15 16  1  0  0  0  0
 16 17  2  0  0  0  0
 17 18  1  0  0  0  0
 17 20  1  0  0  0  0
 18 22  1  0  0  0  0
 19 18  2  0  0  0  0
 20 21  1  0  0  0  0
 22 23  1  0  0  0  0
M  END
>  <MODEL>
9

>  <REMARK>
 VINA RESULT:    -4.781      2.713      8.017
 INTER + INTRA:          -8.757
 INTER:                  -7.856
 INTRA:                  -0.901
 UNBOUND:                -0.901
  Name = CHEMBL77656
  14 active torsions:
  status: ('A' for Active; 'I' for Inactive)
    1  A    between atoms: C_1  and  C_2
    2  A    between atoms: C_2  and  C_3
    3  A    between atoms: C_3  and  C_4
    4  A    between atoms: C_4  and  C_5
    5  A    between atoms: C_5  and  C_6
    6  A    between atoms: C_6  and  C_7
    7  A    between atoms: C_7  and  C_8
    8  A    between atoms: C_8  and  C_9
    9  A    between atoms: N_11  and  C_12
   10  A    between atoms: C_12  and  C_13
   11  A    between atoms: C_16  and  O_17
   12  A    between atoms: O_17  and  C_18
   13  A    between atoms: C_19  and  O_20
   14  A    between atoms: O_20  and  C_21
                            x       y       z     vdW  Elec       q    Type
                         _______ _______ _______ _____ _____    ______ ____

>  <TORSDO>
F 11

>  <SCORE>
-4.781

>  <RMSD_LB>
2.713

>  <RMSD_UB>
8.017

$$$$
