CHEMBL1347
 OpenBabel10172500143D

 17 17  0  0  1  0  0  0  0  0999 V2000
  146.8850  141.0530  153.5600 C   0  0  0  0  0  0  0  0  0  0  0  0
  146.2960  141.3840  152.3350 C   0  0  0  0  0  3  0  0  0  0  0  0
  147.0440  141.9940  151.3130 C   0  0  0  0  0  0  0  0  0  0  0  0
  148.4110  142.2190  151.5110 C   0  0  0  0  0  3  0  0  0  0  0  0
  149.0160  141.8720  152.7200 C   0  0  0  0  0  3  0  0  0  0  0  0
  148.2540  141.3020  153.7360 C   0  0  0  0  0  0  0  0  0  0  0  0
  145.7990  139.1520  154.5030 C   0  0  0  0  0  1  0  0  0  0  0  0
  146.2260  140.5000  154.6260 O   0  0  0  0  0  0  0  0  0  0  0  0
  148.8460  140.9800  154.9290 O   0  0  0  0  0  0  0  0  0  0  0  0
  148.6160  140.1840  155.3670 H   0  0  0  0  0  0  0  0  0  0  0  0
  146.3890  142.4000  150.0080 C   0  0  0  0  0  2  0  0  0  0  0  0
  146.3660  141.2940  148.9290 C   0  0  1  0  0  3  0  0  0  0  0  0
  145.1510  140.3710  149.0430 C   0  0  0  0  0  1  0  0  0  0  0  0
  146.3740  141.9110  147.5940 N   0  0  0  0  0  4  0  0  0  0  0  0
  147.1650  141.5520  147.0590 H   0  0  0  0  0  0  0  0  0  0  0  0
  146.4580  142.9230  147.6880 H   0  0  0  0  0  0  0  0  0  0  0  0
  145.5050  141.6850  147.1100 H   0  0  0  0  0  0  0  0  0  0  0  0
  1  6  1  0  0  0  0
  1  8  1  0  0  0  0
  2  1  2  0  0  0  0
  3  4  2  0  0  0  0
  3  2  1  0  0  0  0
  4  5  1  0  0  0  0
  5  6  2  0  0  0  0
  6  9  1  0  0  0  0
  7  8  1  0  0  0  0
  9 10  1  0  0  0  0
 11  3  1  0  0  0  0
 12 13  1  1  0  0  0
 12 11  1  0  0  0  0
 14 16  1  0  0  0  0
 14 12  1  0  0  0  0
 15 14  1  0  0  0  0
 17 14  1  0  0  0  0
M  END
>  <MODEL>
1

>  <REMARK>
 VINA RESULT:    -5.128      0.000      0.000
 INTER + INTRA:          -6.598
 INTER:                  -6.386
 INTRA:                  -0.212
 UNBOUND:                -0.271
  Name = CHEMBL1347
  7 active torsions:
  status: ('A' for Active; 'I' for Inactive)
    1  A    between atoms: C_1  and  O_2
    2  A    between atoms: O_2  and  C_3
    3  A    between atoms: C_5  and  C_6
    4  A    between atoms: C_6  and  C_7
    5  A    between atoms: C_7  and  C_8
    6  A    between atoms: C_7  and  N_9
    7  A    between atoms: C_12  and  O_13
                            x       y       z     vdW  Elec       q    Type
                         _______ _______ _______ _____ _____    ______ ____

>  <TORSDO>
F 5

>  <SCORE>
-5.128

>  <RMSD_LB>
0.000

>  <RMSD_UB>
0.000

$$$$
CHEMBL1347
 OpenBabel10172500143D

 17 17  0  0  1  0  0  0  0  0999 V2000
  145.7870  141.7810  151.1820 C   0  0  0  0  0  0  0  0  0  0  0  0
  146.2610  141.6290  152.4890 C   0  0  0  0  0  3  0  0  0  0  0  0
  147.6190  141.8270  152.7960 C   0  0  0  0  0  0  0  0  0  0  0  0
  148.4930  142.2380  151.7810 C   0  0  0  0  0  3  0  0  0  0  0  0
  148.0270  142.4170  150.4780 C   0  0  0  0  0  3  0  0  0  0  0  0
  146.6880  142.1800  150.1840 C   0  0  0  0  0  0  0  0  0  0  0  0
  143.9290  140.2920  151.0640 C   0  0  0  0  0  1  0  0  0  0  0  0
  144.4950  141.5640  150.7840 O   0  0  0  0  0  0  0  0  0  0  0  0
  146.2380  142.3370  148.8980 O   0  0  0  0  0  0  0  0  0  0  0  0
  145.9310  141.5950  148.4150 H   0  0  0  0  0  0  0  0  0  0  0  0
  148.1380  141.6090  154.2020 C   0  0  0  0  0  2  0  0  0  0  0  0
  148.4320  140.1340  154.5570 C   0  0  1  0  0  3  0  0  0  0  0  0
  147.1750  139.3440  154.9260 C   0  0  0  0  0  1  0  0  0  0  0  0
  149.0910  139.4780  153.4180 N   0  0  0  0  0  4  0  0  0  0  0  0
  150.0930  139.6690  153.4500 H   0  0  0  0  0  0  0  0  0  0  0  0
  148.7040  139.8400  152.5460 H   0  0  0  0  0  0  0  0  0  0  0  0
  148.9350  138.4710  153.4680 H   0  0  0  0  0  0  0  0  0  0  0  0
  1  2  1  0  0  0  0
  2  3  2  0  0  0  0
  3 11  1  0  0  0  0
  4  3  1  0  0  0  0
  5  4  2  0  0  0  0
  6  5  1  0  0  0  0
  6  1  2  0  0  0  0
  8  7  1  0  0  0  0
  8  1  1  0  0  0  0
  9  6  1  0  0  0  0
 10  9  1  0  0  0  0
 11 12  1  0  0  0  0
 12 13  1  6  0  0  0
 14 15  1  0  0  0  0
 14 17  1  0  0  0  0
 14 12  1  0  0  0  0
 16 14  1  0  0  0  0
M  END
>  <MODEL>
2

>  <REMARK>
 VINA RESULT:    -5.098      3.011      4.458
 INTER + INTRA:          -6.561
 INTER:                  -6.545
 INTRA:                  -0.015
 UNBOUND:                -0.271
  Name = CHEMBL1347
  7 active torsions:
  status: ('A' for Active; 'I' for Inactive)
    1  A    between atoms: C_1  and  O_2
    2  A    between atoms: O_2  and  C_3
    3  A    between atoms: C_5  and  C_6
    4  A    between atoms: C_6  and  C_7
    5  A    between atoms: C_7  and  C_8
    6  A    between atoms: C_7  and  N_9
    7  A    between atoms: C_12  and  O_13
                            x       y       z     vdW  Elec       q    Type
                         _______ _______ _______ _____ _____    ______ ____

>  <TORSDO>
F 5

>  <SCORE>
-5.098

>  <RMSD_LB>
3.011

>  <RMSD_UB>
4.458

$$$$
CHEMBL1347
 OpenBabel10172500143D

 17 17  0  0  1  0  0  0  0  0999 V2000
  146.6490  140.0120  150.0500 C   0  0  0  0  0  0  0  0  0  0  0  0
  147.4560  140.2580  151.1670 C   0  0  0  0  0  3  0  0  0  0  0  0
  147.9120  141.5550  151.4600 C   0  0  0  0  0  0  0  0  0  0  0  0
  147.5020  142.6210  150.6500 C   0  0  0  0  0  3  0  0  0  0  0  0
  146.6770  142.3920  149.5470 C   0  0  0  0  0  3  0  0  0  0  0  0
  146.2650  141.0970  149.2490 C   0  0  0  0  0  0  0  0  0  0  0  0
  145.1720  138.1830  150.4420 C   0  0  0  0  0  1  0  0  0  0  0  0
  146.1980  138.7790  149.6620 O   0  0  0  0  0  0  0  0  0  0  0  0
  145.4710  140.8730  148.1540 O   0  0  0  0  0  0  0  0  0  0  0  0
  144.7680  141.4610  147.9570 H   0  0  0  0  0  0  0  0  0  0  0  0
  148.8300  141.8080  152.6390 C   0  0  0  0  0  2  0  0  0  0  0  0
  148.1200  141.8350  154.0120 C   0  0  1  0  0  3  0  0  0  0  0  0
  146.6120  142.0670  153.9020 C   0  0  0  0  0  1  0  0  0  0  0  0
  148.3580  140.5630  154.7110 N   0  0  0  0  0  4  0  0  0  0  0  0
  148.7330  139.8790  154.0540 H   0  0  0  0  0  0  0  0  0  0  0  0
  147.4790  140.2180  155.0980 H   0  0  0  0  0  0  0  0  0  0  0  0
  149.0280  140.7110  155.4670 H   0  0  0  0  0  0  0  0  0  0  0  0
  1  2  1  0  0  0  0
  2  3  2  0  0  0  0
  3 11  1  0  0  0  0
  4  3  1  0  0  0  0
  5  4  2  0  0  0  0
  6  5  1  0  0  0  0
  6  1  2  0  0  0  0
  8  1  1  0  0  0  0
  8  7  1  0  0  0  0
  9  6  1  0  0  0  0
 10  9  1  0  0  0  0
 11 12  1  0  0  0  0
 12 13  1  6  0  0  0
 12 14  1  0  0  0  0
 14 16  1  0  0  0  0
 14 17  1  0  0  0  0
 15 14  1  0  0  0  0
M  END
>  <MODEL>
3

>  <REMARK>
 VINA RESULT:    -5.072      3.321      4.725
 INTER + INTRA:          -6.530
 INTER:                  -6.480
 INTRA:                  -0.049
 UNBOUND:                -0.271
  Name = CHEMBL1347
  7 active torsions:
  status: ('A' for Active; 'I' for Inactive)
    1  A    between atoms: C_1  and  O_2
    2  A    between atoms: O_2  and  C_3
    3  A    between atoms: C_5  and  C_6
    4  A    between atoms: C_6  and  C_7
    5  A    between atoms: C_7  and  C_8
    6  A    between atoms: C_7  and  N_9
    7  A    between atoms: C_12  and  O_13
                            x       y       z     vdW  Elec       q    Type
                         _______ _______ _______ _____ _____    ______ ____

>  <TORSDO>
F 5

>  <SCORE>
-5.072

>  <RMSD_LB>
3.321

>  <RMSD_UB>
4.725

$$$$
CHEMBL1347
 OpenBabel10172500143D

 17 17  0  0  1  0  0  0  0  0999 V2000
  132.9680  134.7740  148.1510 C   0  0  0  0  0  0  0  0  0  0  0  0
  133.0200  135.0790  149.5150 C   0  0  0  0  0  3  0  0  0  0  0  0
  133.4950  134.1420  150.4500 C   0  0  0  0  0  0  0  0  0  0  0  0
  133.9720  132.9080  149.9940 C   0  0  0  0  0  3  0  0  0  0  0  0
  133.9470  132.6000  148.6330 C   0  0  0  0  0  3  0  0  0  0  0  0
  133.4400  133.5240  147.7240 C   0  0  0  0  0  0  0  0  0  0  0  0
  132.6540  137.0010  147.3610 C   0  0  0  0  0  1  0  0  0  0  0  0
  132.4790  135.6040  147.1770 O   0  0  0  0  0  0  0  0  0  0  0  0
  133.3990  133.2110  146.3910 O   0  0  0  0  0  0  0  0  0  0  0  0
  132.7780  132.5840  146.0750 H   0  0  0  0  0  0  0  0  0  0  0  0
  133.4990  134.4580  151.9320 C   0  0  0  0  0  2  0  0  0  0  0  0
  134.8240  134.1250  152.6560 C   0  0  1  0  0  3  0  0  0  0  0  0
  135.9240  135.1550  152.3960 C   0  0  0  0  0  1  0  0  0  0  0  0
  134.5820  134.0380  154.1040 N   0  0  0  0  0  4  0  0  0  0  0  0
  134.0330  134.8430  154.4050 H   0  0  0  0  0  0  0  0  0  0  0  0
  135.4750  134.0320  154.5980 H   0  0  0  0  0  0  0  0  0  0  0  0
  134.0710  133.1800  154.3130 H   0  0  0  0  0  0  0  0  0  0  0  0
  1  2  1  0  0  0  0
  2  3  2  0  0  0  0
  3 11  1  0  0  0  0
  4  3  1  0  0  0  0
  5  4  2  0  0  0  0
  6  1  2  0  0  0  0
  6  5  1  0  0  0  0
  8  7  1  0  0  0  0
  8  1  1  0  0  0  0
  9  6  1  0  0  0  0
 10  9  1  0  0  0  0
 11 12  1  0  0  0  0
 12 13  1  1  0  0  0
 12 14  1  0  0  0  0
 14 17  1  0  0  0  0
 14 15  1  0  0  0  0
 14 16  1  0  0  0  0
M  END
>  <MODEL>
4

>  <REMARK>
 VINA RESULT:    -5.047     13.939     16.035
 INTER + INTRA:          -6.498
 INTER:                  -6.220
 INTRA:                  -0.279
 UNBOUND:                -0.271
  Name = CHEMBL1347
  7 active torsions:
  status: ('A' for Active; 'I' for Inactive)
    1  A    between atoms: C_1  and  O_2
    2  A    between atoms: O_2  and  C_3
    3  A    between atoms: C_5  and  C_6
    4  A    between atoms: C_6  and  C_7
    5  A    between atoms: C_7  and  C_8
    6  A    between atoms: C_7  and  N_9
    7  A    between atoms: C_12  and  O_13
                            x       y       z     vdW  Elec       q    Type
                         _______ _______ _______ _____ _____    ______ ____

>  <TORSDO>
F 5

>  <SCORE>
-5.047

>  <RMSD_LB>
13.939

>  <RMSD_UB>
16.035

$$$$
CHEMBL1347
 OpenBabel10172500143D

 17 17  0  0  1  0  0  0  0  0999 V2000
  134.8350  134.9720  155.7100 C   0  0  0  0  0  0  0  0  0  0  0  0
  136.1000  135.5170  155.4660 C   0  0  0  0  0  3  0  0  0  0  0  0
  136.9840  135.7990  156.5230 C   0  0  0  0  0  0  0  0  0  0  0  0
  136.6060  135.4740  157.8310 C   0  0  0  0  0  3  0  0  0  0  0  0
  135.3560  134.9080  158.0850 C   0  0  0  0  0  3  0  0  0  0  0  0
  134.4780  134.6700  157.0320 C   0  0  0  0  0  0  0  0  0  0  0  0
  133.9430  135.4780  153.5580 C   0  0  0  0  0  1  0  0  0  0  0  0
  133.8930  134.7090  154.7500 O   0  0  0  0  0  0  0  0  0  0  0  0
  133.2430  134.1320  157.2870 O   0  0  0  0  0  0  0  0  0  0  0  0
  132.4810  134.4940  156.8800 H   0  0  0  0  0  0  0  0  0  0  0  0
  138.3310  136.4390  156.2590 C   0  0  0  0  0  2  0  0  0  0  0  0
  138.3000  137.9810  156.1450 C   0  0  1  0  0  3  0  0  0  0  0  0
  139.0390  138.5060  154.9130 C   0  0  0  0  0  1  0  0  0  0  0  0
  136.9030  138.4400  156.0960 N   0  0  0  0  0  4  0  0  0  0  0  0
  136.2800  137.6480  156.2550 H   0  0  0  0  0  0  0  0  0  0  0  0
  136.7110  138.8460  155.1800 H   0  0  0  0  0  0  0  0  0  0  0  0
  136.7510  139.1430  156.8190 H   0  0  0  0  0  0  0  0  0  0  0  0
  1  6  1  0  0  0  0
  2  1  2  0  0  0  0
  2  3  1  0  0  0  0
  3  4  2  0  0  0  0
  4  5  1  0  0  0  0
  6  9  1  0  0  0  0
  6  5  2  0  0  0  0
  7  8  1  0  0  0  0
  8  1  1  0  0  0  0
 10  9  1  0  0  0  0
 11  3  1  0  0  0  0
 12 13  1  6  0  0  0
 12 11  1  0  0  0  0
 14 12  1  0  0  0  0
 14 15  1  0  0  0  0
 14 17  1  0  0  0  0
 16 14  1  0  0  0  0
M  END
>  <MODEL>
5

>  <REMARK>
 VINA RESULT:    -5.024     11.258     13.555
 INTER + INTRA:          -6.470
 INTER:                  -6.589
 INTRA:                   0.118
 UNBOUND:                -0.271
  Name = CHEMBL1347
  7 active torsions:
  status: ('A' for Active; 'I' for Inactive)
    1  A    between atoms: C_1  and  O_2
    2  A    between atoms: O_2  and  C_3
    3  A    between atoms: C_5  and  C_6
    4  A    between atoms: C_6  and  C_7
    5  A    between atoms: C_7  and  C_8
    6  A    between atoms: C_7  and  N_9
    7  A    between atoms: C_12  and  O_13
                            x       y       z     vdW  Elec       q    Type
                         _______ _______ _______ _____ _____    ______ ____

>  <TORSDO>
F 5

>  <SCORE>
-5.024

>  <RMSD_LB>
11.258

>  <RMSD_UB>
13.555

$$$$
CHEMBL1347
 OpenBabel10172500143D

 17 17  0  0  1  0  0  0  0  0999 V2000
  133.2440  134.6460  147.8720 C   0  0  0  0  0  0  0  0  0  0  0  0
  133.3550  134.4210  149.2480 C   0  0  0  0  0  3  0  0  0  0  0  0
  133.1710  135.4670  150.1700 C   0  0  0  0  0  0  0  0  0  0  0  0
  132.8170  136.7370  149.6980 C   0  0  0  0  0  3  0  0  0  0  0  0
  132.6800  136.9670  148.3280 C   0  0  0  0  0  3  0  0  0  0  0  0
  132.9020  135.9300  147.4270 C   0  0  0  0  0  0  0  0  0  0  0  0
  134.7880  133.2830  146.6720 C   0  0  0  0  0  1  0  0  0  0  0  0
  133.4510  133.7010  146.9020 O   0  0  0  0  0  0  0  0  0  0  0  0
  132.7860  136.1650  146.0810 O   0  0  0  0  0  0  0  0  0  0  0  0
  133.5470  136.1480  145.5350 H   0  0  0  0  0  0  0  0  0  0  0  0
  133.3450  135.2320  151.6570 C   0  0  0  0  0  2  0  0  0  0  0  0
  134.3310  134.0970  152.0170 C   0  0  1  0  0  3  0  0  0  0  0  0
  135.7970  134.5240  151.9180 C   0  0  0  0  0  1  0  0  0  0  0  0
  134.0600  133.6280  153.3840 N   0  0  0  0  0  4  0  0  0  0  0  0
  133.1120  133.8930  153.6520 H   0  0  0  0  0  0  0  0  0  0  0  0
  134.7270  134.0550  154.0280 H   0  0  0  0  0  0  0  0  0  0  0  0
  134.1540  132.6130  153.4200 H   0  0  0  0  0  0  0  0  0  0  0  0
  1  2  1  0  0  0  0
  2  3  2  0  0  0  0
  3 11  1  0  0  0  0
  4  3  1  0  0  0  0
  5  4  2  0  0  0  0
  6  1  2  0  0  0  0
  6  5  1  0  0  0  0
  7  8  1  0  0  0  0
  8  1  1  0  0  0  0
  9  6  1  0  0  0  0
 10  9  1  0  0  0  0
 11 12  1  0  0  0  0
 12 13  1  1  0  0  0
 12 14  1  0  0  0  0
 14 17  1  0  0  0  0
 14 15  1  0  0  0  0
 14 16  1  0  0  0  0
M  END
>  <MODEL>
6

>  <REMARK>
 VINA RESULT:    -4.867     14.252     15.865
 INTER + INTRA:          -6.276
 INTER:                  -6.044
 INTRA:                  -0.233
 UNBOUND:                -0.271
  Name = CHEMBL1347
  7 active torsions:
  status: ('A' for Active; 'I' for Inactive)
    1  A    between atoms: C_1  and  O_2
    2  A    between atoms: O_2  and  C_3
    3  A    between atoms: C_5  and  C_6
    4  A    between atoms: C_6  and  C_7
    5  A    between atoms: C_7  and  C_8
    6  A    between atoms: C_7  and  N_9
    7  A    between atoms: C_12  and  O_13
                            x       y       z     vdW  Elec       q    Type
                         _______ _______ _______ _____ _____    ______ ____

>  <TORSDO>
F 5

>  <SCORE>
-4.867

>  <RMSD_LB>
14.252

>  <RMSD_UB>
15.865

$$$$
CHEMBL1347
 OpenBabel10172500143D

 17 17  0  0  1  0  0  0  0  0999 V2000
  146.3270  139.6470  154.1520 C   0  0  0  0  0  0  0  0  0  0  0  0
  145.6770  140.4810  153.2360 C   0  0  0  0  0  3  0  0  0  0  0  0
  146.2390  141.7110  152.8490 C   0  0  0  0  0  0  0  0  0  0  0  0
  147.4960  142.0710  153.3490 C   0  0  0  0  0  3  0  0  0  0  0  0
  148.1660  141.2370  154.2450 C   0  0  0  0  0  3  0  0  0  0  0  0
  147.5790  140.0410  154.6470 C   0  0  0  0  0  0  0  0  0  0  0  0
  145.3720  137.5190  153.6620 C   0  0  0  0  0  1  0  0  0  0  0  0
  145.8340  138.4580  154.6210 O   0  0  0  0  0  0  0  0  0  0  0  0
  148.2300  139.2330  155.5420 O   0  0  0  0  0  0  0  0  0  0  0  0
  147.8960  139.1310  156.4110 H   0  0  0  0  0  0  0  0  0  0  0  0
  145.5060  142.6350  151.8980 C   0  0  0  0  0  2  0  0  0  0  0  0
  145.9470  142.5190  150.4210 C   0  0  1  0  0  3  0  0  0  0  0  0
  147.4660  142.4530  150.2530 C   0  0  0  0  0  1  0  0  0  0  0  0
  145.3460  141.3180  149.8230 N   0  0  0  0  0  4  0  0  0  0  0  0
  145.8730  141.0530  148.9910 H   0  0  0  0  0  0  0  0  0  0  0  0
  144.3790  141.5130  149.5650 H   0  0  0  0  0  0  0  0  0  0  0  0
  145.3710  140.5530  150.4990 H   0  0  0  0  0  0  0  0  0  0  0  0
  1  8  1  0  0  0  0
  1  6  1  0  0  0  0
  2  1  2  0  0  0  0
  3  2  1  0  0  0  0
  3  4  2  0  0  0  0
  4  5  1  0  0  0  0
  5  6  2  0  0  0  0
  6  9  1  0  0  0  0
  7  8  1  0  0  0  0
  9 10  1  0  0  0  0
 11  3  1  0  0  0  0
 12 13  1  1  0  0  0
 12 11  1  0  0  0  0
 14 12  1  0  0  0  0
 14 17  1  0  0  0  0
 15 14  1  0  0  0  0
 16 14  1  0  0  0  0
M  END
>  <MODEL>
7

>  <REMARK>
 VINA RESULT:    -4.855      1.650      2.072
 INTER + INTRA:          -6.261
 INTER:                  -6.353
 INTRA:                   0.091
 UNBOUND:                -0.271
  Name = CHEMBL1347
  7 active torsions:
  status: ('A' for Active; 'I' for Inactive)
    1  A    between atoms: C_1  and  O_2
    2  A    between atoms: O_2  and  C_3
    3  A    between atoms: C_5  and  C_6
    4  A    between atoms: C_6  and  C_7
    5  A    between atoms: C_7  and  C_8
    6  A    between atoms: C_7  and  N_9
    7  A    between atoms: C_12  and  O_13
                            x       y       z     vdW  Elec       q    Type
                         _______ _______ _______ _____ _____    ______ ____

>  <TORSDO>
F 5

>  <SCORE>
-4.855

>  <RMSD_LB>
1.650

>  <RMSD_UB>
2.072

$$$$
CHEMBL1347
 OpenBabel10172500143D

 17 17  0  0  1  0  0  0  0  0999 V2000
  134.9860  135.5210  152.2870 C   0  0  0  0  0  0  0  0  0  0  0  0
  136.1580  136.2580  152.0880 C   0  0  0  0  0  3  0  0  0  0  0  0
  136.9560  136.6590  153.1740 C   0  0  0  0  0  0  0  0  0  0  0  0
  136.5940  136.2620  154.4670 C   0  0  0  0  0  3  0  0  0  0  0  0
  135.4400  135.5050  154.6770 C   0  0  0  0  0  3  0  0  0  0  0  0
  134.6410  135.1490  153.5940 C   0  0  0  0  0  0  0  0  0  0  0  0
  133.1960  136.0890  150.8190 C   0  0  0  0  0  1  0  0  0  0  0  0
  134.1260  135.1280  151.2960 O   0  0  0  0  0  0  0  0  0  0  0  0
  133.4980  134.4230  153.8050 O   0  0  0  0  0  0  0  0  0  0  0  0
  132.8210  134.7640  154.3570 H   0  0  0  0  0  0  0  0  0  0  0  0
  138.1950  137.5030  152.9580 C   0  0  0  0  0  2  0  0  0  0  0  0
  138.4740  138.5330  154.0770 C   0  0  1  0  0  3  0  0  0  0  0  0
  139.5860  138.0940  155.0310 C   0  0  0  0  0  1  0  0  0  0  0  0
  138.8440  139.8230  153.4740 N   0  0  0  0  0  4  0  0  0  0  0  0
  138.2360  140.0110  152.6770 H   0  0  0  0  0  0  0  0  0  0  0  0
  139.8140  139.7860  153.1610 H   0  0  0  0  0  0  0  0  0  0  0  0
  138.7370  140.5650  154.1660 H   0  0  0  0  0  0  0  0  0  0  0  0
  1  6  1  0  0  0  0
  2  1  2  0  0  0  0
  2  3  1  0  0  0  0
  3  4  2  0  0  0  0
  4  5  1  0  0  0  0
  6  9  1  0  0  0  0
  6  5  2  0  0  0  0
  7  8  1  0  0  0  0
  8  1  1  0  0  0  0
  9 10  1  0  0  0  0
 11  3  1  0  0  0  0
 11 12  1  0  0  0  0
 12 13  1  1  0  0  0
 14 12  1  0  0  0  0
 14 17  1  0  0  0  0
 15 14  1  0  0  0  0
 16 14  1  0  0  0  0
M  END
>  <MODEL>
8

>  <REMARK>
 VINA RESULT:    -4.771     10.693     12.662
 INTER + INTRA:          -6.157
 INTER:                  -5.989
 INTRA:                  -0.168
 UNBOUND:                -0.271
  Name = CHEMBL1347
  7 active torsions:
  status: ('A' for Active; 'I' for Inactive)
    1  A    between atoms: C_1  and  O_2
    2  A    between atoms: O_2  and  C_3
    3  A    between atoms: C_5  and  C_6
    4  A    between atoms: C_6  and  C_7
    5  A    between atoms: C_7  and  C_8
    6  A    between atoms: C_7  and  N_9
    7  A    between atoms: C_12  and  O_13
                            x       y       z     vdW  Elec       q    Type
                         _______ _______ _______ _____ _____    ______ ____

>  <TORSDO>
F 5

>  <SCORE>
-4.771

>  <RMSD_LB>
10.693

>  <RMSD_UB>
12.662

$$$$
CHEMBL1347
 OpenBabel10172500143D

 17 17  0  0  1  0  0  0  0  0999 V2000
  146.7860  140.0920  154.1790 C   0  0  0  0  0  0  0  0  0  0  0  0
  145.7480  139.7940  153.2890 C   0  0  0  0  0  3  0  0  0  0  0  0
  145.3310  140.7280  152.3240 C   0  0  0  0  0  0  0  0  0  0  0  0
  146.0080  141.9500  152.2220 C   0  0  0  0  0  3  0  0  0  0  0  0
  147.0600  142.2480  153.0880 C   0  0  0  0  0  3  0  0  0  0  0  0
  147.4360  141.3280  154.0630 C   0  0  0  0  0  0  0  0  0  0  0  0
  147.0340  137.8690  155.0030 C   0  0  0  0  0  1  0  0  0  0  0  0
  147.2260  139.2640  155.1780 O   0  0  0  0  0  0  0  0  0  0  0  0
  148.4580  141.6320  154.9240 O   0  0  0  0  0  0  0  0  0  0  0  0
  149.3400  141.6710  154.6110 H   0  0  0  0  0  0  0  0  0  0  0  0
  144.1710  140.4230  151.3980 C   0  0  0  0  0  2  0  0  0  0  0  0
  144.5110  140.5100  149.8920 C   0  0  1  0  0  3  0  0  0  0  0  0
  145.6240  139.5490  149.4730 C   0  0  0  0  0  1  0  0  0  0  0  0
  143.3060  140.2200  149.1010 N   0  0  0  0  0  4  0  0  0  0  0  0
  143.5640  140.0920  148.1230 H   0  0  0  0  0  0  0  0  0  0  0  0
  142.6510  141.0000  149.1800 H   0  0  0  0  0  0  0  0  0  0  0  0
  142.8650  139.3690  149.4510 H   0  0  0  0  0  0  0  0  0  0  0  0
  1  8  1  0  0  0  0
  2  1  2  0  0  0  0
  3  2  1  0  0  0  0
  4  3  2  0  0  0  0
  4  5  1  0  0  0  0
  5  6  2  0  0  0  0
  6  1  1  0  0  0  0
  6  9  1  0  0  0  0
  7  8  1  0  0  0  0
 10  9  1  0  0  0  0
 11  3  1  0  0  0  0
 12 13  1  6  0  0  0
 12 11  1  0  0  0  0
 14 16  1  0  0  0  0
 14 17  1  0  0  0  0
 14 12  1  0  0  0  0
 15 14  1  0  0  0  0
M  END
>  <MODEL>
9

>  <REMARK>
 VINA RESULT:    -4.708      1.802      2.149
 INTER + INTRA:          -6.081
 INTER:                  -5.809
 INTRA:                  -0.271
 UNBOUND:                -0.271
  Name = CHEMBL1347
  7 active torsions:
  status: ('A' for Active; 'I' for Inactive)
    1  A    between atoms: C_1  and  O_2
    2  A    between atoms: O_2  and  C_3
    3  A    between atoms: C_5  and  C_6
    4  A    between atoms: C_6  and  C_7
    5  A    between atoms: C_7  and  C_8
    6  A    between atoms: C_7  and  N_9
    7  A    between atoms: C_12  and  O_13
                            x       y       z     vdW  Elec       q    Type
                         _______ _______ _______ _____ _____    ______ ____

>  <TORSDO>
F 5

>  <SCORE>
-4.708

>  <RMSD_LB>
1.802

>  <RMSD_UB>
2.149

$$$$
