CHEMBL4207280
 OpenBabel10162523583D

 14 14  0  0  0  0  0  0  0  0999 V2000
  146.5590  140.1500  154.2100 C   0  0  0  0  0  0  0  0  0  0  0  0
  145.8140  140.8250  153.2360 C   0  0  0  0  0  3  0  0  0  0  0  0
  146.3900  141.8490  152.4620 C   0  0  0  0  0  0  0  0  0  0  0  0
  147.7360  142.1770  152.6680 C   0  0  0  0  0  3  0  0  0  0  0  0
  148.4910  141.5090  153.6330 C   0  0  0  0  0  3  0  0  0  0  0  0
  147.9010  140.5060  154.4000 C   0  0  0  0  0  0  0  0  0  0  0  0
  145.8750  137.8740  154.4040 C   0  0  0  0  0  1  0  0  0  0  0  0
  146.0790  139.1430  155.0070 O   0  0  0  0  0  0  0  0  0  0  0  0
  148.6440  139.8560  155.3510 O   0  0  0  0  0  0  0  0  0  0  0  0
  149.4810  140.1940  155.6020 H   0  0  0  0  0  0  0  0  0  0  0  0
  145.5930  142.5550  151.3880 C   0  0  0  0  0  2  0  0  0  0  0  0
  146.3260  142.6510  150.0520 C   0  0  0  0  0  2  0  0  0  0  0  0
  146.3020  141.3390  149.3080 C   0  0  0  0  0  3  0  0  0  0  0  0
  146.4150  141.2270  148.0920 O   0  0  0  0  0  0  0  0  0  0  0  0
  1  6  1  0  0  0  0
  1  8  1  0  0  0  0
  2  1  2  0  0  0  0
  3  4  2  0  0  0  0
  3  2  1  0  0  0  0
  4  5  1  0  0  0  0
  5  6  2  0  0  0  0
  6  9  1  0  0  0  0
  7  8  1  0  0  0  0
  9 10  1  0  0  0  0
 11  3  1  0  0  0  0
 12 11  1  0  0  0  0
 13 12  1  0  0  0  0
 14 13  2  0  0  0  0
M  END
>  <MODEL>
1

>  <REMARK>
 VINA RESULT:    -5.214      0.000      0.000
 INTER + INTRA:          -6.774
 INTER:                  -6.532
 INTRA:                  -0.241
 UNBOUND:                -0.188
  Name = CHEMBL4207280
  6 active torsions:
  status: ('A' for Active; 'I' for Inactive)
    1  A    between atoms: C_1  and  O_2
    2  A    between atoms: O_2  and  C_3
    3  A    between atoms: C_5  and  C_6
    4  A    between atoms: C_6  and  C_7
    5  A    between atoms: C_7  and  C_8
    6  A    between atoms: C_12  and  O_13
                            x       y       z     vdW  Elec       q    Type
                         _______ _______ _______ _____ _____    ______ ____

>  <TORSDO>
F 5

>  <SCORE>
-5.214

>  <RMSD_LB>
0.000

>  <RMSD_UB>
0.000

$$$$
CHEMBL4207280
 OpenBabel10162523583D

 14 14  0  0  0  0  0  0  0  0999 V2000
  135.2730  136.0000  154.3510 C   0  0  0  0  0  0  0  0  0  0  0  0
  136.2070  136.4680  155.2840 C   0  0  0  0  0  3  0  0  0  0  0  0
  136.2300  135.9710  156.5990 C   0  0  0  0  0  0  0  0  0  0  0  0
  135.3090  134.9800  156.9640 C   0  0  0  0  0  3  0  0  0  0  0  0
  134.3760  134.5030  156.0440 C   0  0  0  0  0  3  0  0  0  0  0  0
  134.3590  135.0160  154.7480 C   0  0  0  0  0  0  0  0  0  0  0  0
  136.2350  136.0740  152.1710 C   0  0  0  0  0  1  0  0  0  0  0  0
  135.1800  136.4290  153.0520 O   0  0  0  0  0  0  0  0  0  0  0  0
  133.4370  134.5490  153.8480 O   0  0  0  0  0  0  0  0  0  0  0  0
  133.6960  134.3630  152.9660 H   0  0  0  0  0  0  0  0  0  0  0  0
  137.2590  136.4530  157.5970 C   0  0  0  0  0  2  0  0  0  0  0  0
  136.7160  136.5790  159.0180 C   0  0  0  0  0  2  0  0  0  0  0  0
  136.5250  138.0220  159.4150 C   0  0  0  0  0  3  0  0  0  0  0  0
  136.1420  138.9070  158.6590 O   0  0  0  0  0  0  0  0  0  0  0  0
  1  6  2  0  0  0  0
  1  2  1  0  0  0  0
  2  3  2  0  0  0  0
  3  4  1  0  0  0  0
  3 11  1  0  0  0  0
  5  4  2  0  0  0  0
  6  5  1  0  0  0  0
  7  8  1  0  0  0  0
  8  1  1  0  0  0  0
  9  6  1  0  0  0  0
 10  9  1  0  0  0  0
 11 12  1  0  0  0  0
 12 13  1  0  0  0  0
 14 13  2  0  0  0  0
M  END
>  <MODEL>
2

>  <REMARK>
 VINA RESULT:    -5.081     11.738     13.549
 INTER + INTRA:          -6.606
 INTER:                  -6.345
 INTRA:                  -0.261
 UNBOUND:                -0.188
  Name = CHEMBL4207280
  6 active torsions:
  status: ('A' for Active; 'I' for Inactive)
    1  A    between atoms: C_1  and  O_2
    2  A    between atoms: O_2  and  C_3
    3  A    between atoms: C_5  and  C_6
    4  A    between atoms: C_6  and  C_7
    5  A    between atoms: C_7  and  C_8
    6  A    between atoms: C_12  and  O_13
                            x       y       z     vdW  Elec       q    Type
                         _______ _______ _______ _____ _____    ______ ____

>  <TORSDO>
F 5

>  <SCORE>
-5.081

>  <RMSD_LB>
11.738

>  <RMSD_UB>
13.549

$$$$
CHEMBL4207280
 OpenBabel10162523583D

 14 14  0  0  0  0  0  0  0  0999 V2000
  133.9380  134.8600  147.9580 C   0  0  0  0  0  0  0  0  0  0  0  0
  134.4260  135.1500  149.2380 C   0  0  0  0  0  3  0  0  0  0  0  0
  134.6520  134.1280  150.1770 C   0  0  0  0  0  0  0  0  0  0  0  0
  134.3960  132.8000  149.8080 C   0  0  0  0  0  3  0  0  0  0  0  0
  133.9120  132.4980  148.5350 C   0  0  0  0  0  3  0  0  0  0  0  0
  133.6820  133.5250  147.6200 C   0  0  0  0  0  0  0  0  0  0  0  0
  132.7500  136.8140  147.2840 C   0  0  0  0  0  1  0  0  0  0  0  0
  133.6890  135.7920  146.9840 O   0  0  0  0  0  0  0  0  0  0  0  0
  133.2020  133.2240  146.3730 O   0  0  0  0  0  0  0  0  0  0  0  0
  132.4180  133.6320  146.0610 H   0  0  0  0  0  0  0  0  0  0  0  0
  135.2100  134.4380  151.5480 C   0  0  0  0  0  2  0  0  0  0  0  0
  134.2910  134.0120  152.6890 C   0  0  0  0  0  2  0  0  0  0  0  0
  133.7880  135.2000  153.4730 C   0  0  0  0  0  3  0  0  0  0  0  0
  134.2150  136.3420  153.3550 O   0  0  0  0  0  0  0  0  0  0  0  0
  1  2  1  0  0  0  0
  2  3  2  0  0  0  0
  3 11  1  0  0  0  0
  4  3  1  0  0  0  0
  5  4  2  0  0  0  0
  6  1  2  0  0  0  0
  6  5  1  0  0  0  0
  8  7  1  0  0  0  0
  8  1  1  0  0  0  0
  9  6  1  0  0  0  0
 10  9  1  0  0  0  0
 11 12  1  0  0  0  0
 12 13  1  0  0  0  0
 14 13  2  0  0  0  0
M  END
>  <MODEL>
3

>  <REMARK>
 VINA RESULT:    -5.067     13.601     15.507
 INTER + INTRA:          -6.589
 INTER:                  -6.364
 INTRA:                  -0.225
 UNBOUND:                -0.188
  Name = CHEMBL4207280
  6 active torsions:
  status: ('A' for Active; 'I' for Inactive)
    1  A    between atoms: C_1  and  O_2
    2  A    between atoms: O_2  and  C_3
    3  A    between atoms: C_5  and  C_6
    4  A    between atoms: C_6  and  C_7
    5  A    between atoms: C_7  and  C_8
    6  A    between atoms: C_12  and  O_13
                            x       y       z     vdW  Elec       q    Type
                         _______ _______ _______ _____ _____    ______ ____

>  <TORSDO>
F 5

>  <SCORE>
-5.067

>  <RMSD_LB>
13.601

>  <RMSD_UB>
15.507

$$$$
CHEMBL4207280
 OpenBabel10162523583D

 14 14  0  0  0  0  0  0  0  0999 V2000
  134.9060  133.8240  147.9800 C   0  0  0  0  0  0  0  0  0  0  0  0
  135.4240  134.1560  149.2370 C   0  0  0  0  0  3  0  0  0  0  0  0
  134.6190  134.1130  150.3890 C   0  0  0  0  0  0  0  0  0  0  0  0
  133.2820  133.7120  150.2650 C   0  0  0  0  0  3  0  0  0  0  0  0
  132.7530  133.3750  149.0190 C   0  0  0  0  0  3  0  0  0  0  0  0
  133.5630  133.4370  147.8860 C   0  0  0  0  0  0  0  0  0  0  0  0
  136.6230  132.8510  146.6420 C   0  0  0  0  0  1  0  0  0  0  0  0
  135.6180  133.8400  146.8090 O   0  0  0  0  0  0  0  0  0  0  0  0
  133.0390  133.1100  146.6620 O   0  0  0  0  0  0  0  0  0  0  0  0
  133.2090  132.2670  146.2890 H   0  0  0  0  0  0  0  0  0  0  0  0
  135.1890  134.4400  151.7510 C   0  0  0  0  0  2  0  0  0  0  0  0
  134.2560  134.0760  152.9040 C   0  0  0  0  0  2  0  0  0  0  0  0
  133.9550  135.2700  153.7750 C   0  0  0  0  0  3  0  0  0  0  0  0
  134.1580  136.4350  153.4540 O   0  0  0  0  0  0  0  0  0  0  0  0
  1  2  1  0  0  0  0
  2  3  2  0  0  0  0
  3 11  1  0  0  0  0
  4  3  1  0  0  0  0
  5  4  2  0  0  0  0
  6  1  2  0  0  0  0
  6  5  1  0  0  0  0
  7  8  1  0  0  0  0
  8  1  1  0  0  0  0
  9  6  1  0  0  0  0
 10  9  1  0  0  0  0
 11 12  1  0  0  0  0
 12 13  1  0  0  0  0
 14 13  2  0  0  0  0
M  END
>  <MODEL>
4

>  <REMARK>
 VINA RESULT:    -4.992     13.523     15.338
 INTER + INTRA:          -6.494
 INTER:                  -6.245
 INTRA:                  -0.249
 UNBOUND:                -0.188
  Name = CHEMBL4207280
  6 active torsions:
  status: ('A' for Active; 'I' for Inactive)
    1  A    between atoms: C_1  and  O_2
    2  A    between atoms: O_2  and  C_3
    3  A    between atoms: C_5  and  C_6
    4  A    between atoms: C_6  and  C_7
    5  A    between atoms: C_7  and  C_8
    6  A    between atoms: C_12  and  O_13
                            x       y       z     vdW  Elec       q    Type
                         _______ _______ _______ _____ _____    ______ ____

>  <TORSDO>
F 5

>  <SCORE>
-4.992

>  <RMSD_LB>
13.523

>  <RMSD_UB>
15.338

$$$$
CHEMBL4207280
 OpenBabel10162523583D

 14 14  0  0  0  0  0  0  0  0999 V2000
  147.2470  139.5850  153.4120 C   0  0  0  0  0  0  0  0  0  0  0  0
  146.3570  139.9030  152.3790 C   0  0  0  0  0  3  0  0  0  0  0  0
  145.9780  141.2340  152.1330 C   0  0  0  0  0  0  0  0  0  0  0  0
  146.5180  142.2510  152.9310 C   0  0  0  0  0  3  0  0  0  0  0  0
  147.4070  141.9480  153.9620 C   0  0  0  0  0  3  0  0  0  0  0  0
  147.7630  140.6210  154.2010 C   0  0  0  0  0  0  0  0  0  0  0  0
  148.5950  137.7030  152.8370 C   0  0  0  0  0  1  0  0  0  0  0  0
  147.6690  138.3170  153.7220 O   0  0  0  0  0  0  0  0  0  0  0  0
  148.6330  140.3270  155.2180 O   0  0  0  0  0  0  0  0  0  0  0  0
  149.5580  140.3570  155.0670 H   0  0  0  0  0  0  0  0  0  0  0  0
  145.0430  141.5790  150.9950 C   0  0  0  0  0  2  0  0  0  0  0  0
  143.9750  140.5180  150.7420 C   0  0  0  0  0  2  0  0  0  0  0  0
  143.9270  140.1110  149.2890 C   0  0  0  0  0  3  0  0  0  0  0  0
  142.9330  139.6730  148.7220 O   0  0  0  0  0  0  0  0  0  0  0  0
  1  8  1  0  0  0  0
  1  6  1  0  0  0  0
  2  1  2  0  0  0  0
  3  2  1  0  0  0  0
  3  4  2  0  0  0  0
  4  5  1  0  0  0  0
  5  6  2  0  0  0  0
  6  9  1  0  0  0  0
  7  8  1  0  0  0  0
 10  9  1  0  0  0  0
 11  3  1  0  0  0  0
 12 11  1  0  0  0  0
 13 12  1  0  0  0  0
 14 13  2  0  0  0  0
M  END
>  <MODEL>
5

>  <REMARK>
 VINA RESULT:    -4.668      1.992      2.077
 INTER + INTRA:          -6.084
 INTER:                  -5.893
 INTRA:                  -0.191
 UNBOUND:                -0.188
  Name = CHEMBL4207280
  6 active torsions:
  status: ('A' for Active; 'I' for Inactive)
    1  A    between atoms: C_1  and  O_2
    2  A    between atoms: O_2  and  C_3
    3  A    between atoms: C_5  and  C_6
    4  A    between atoms: C_6  and  C_7
    5  A    between atoms: C_7  and  C_8
    6  A    between atoms: C_12  and  O_13
                            x       y       z     vdW  Elec       q    Type
                         _______ _______ _______ _____ _____    ______ ____

>  <TORSDO>
F 5

>  <SCORE>
-4.668

>  <RMSD_LB>
1.992

>  <RMSD_UB>
2.077

$$$$
CHEMBL4207280
 OpenBabel10162523583D

 14 14  0  0  0  0  0  0  0  0999 V2000
  134.4180  133.3190  146.8850 C   0  0  0  0  0  0  0  0  0  0  0  0
  134.0530  134.6430  146.6120 C   0  0  0  0  0  3  0  0  0  0  0  0
  133.2940  135.3900  147.5300 C   0  0  0  0  0  0  0  0  0  0  0  0
  132.9180  134.7940  148.7410 C   0  0  0  0  0  3  0  0  0  0  0  0
  133.2780  133.4770  149.0270 C   0  0  0  0  0  3  0  0  0  0  0  0
  134.0190  132.7460  148.0990 C   0  0  0  0  0  0  0  0  0  0  0  0
  136.5110  132.8750  145.8330 C   0  0  0  0  0  1  0  0  0  0  0  0
  135.1530  132.5200  146.0480 O   0  0  0  0  0  0  0  0  0  0  0  0
  134.3660  131.4510  148.3810 O   0  0  0  0  0  0  0  0  0  0  0  0
  135.2360  131.1500  148.2060 H   0  0  0  0  0  0  0  0  0  0  0  0
  132.9290  136.8310  147.2490 C   0  0  0  0  0  2  0  0  0  0  0  0
  132.7790  137.1400  145.7620 C   0  0  0  0  0  2  0  0  0  0  0  0
  133.4560  138.4370  145.3910 C   0  0  0  0  0  3  0  0  0  0  0  0
  132.9390  139.3260  144.7250 O   0  0  0  0  0  0  0  0  0  0  0  0
  1  6  1  0  0  0  0
  2  1  2  0  0  0  0
  2  3  1  0  0  0  0
  3  4  2  0  0  0  0
  4  5  1  0  0  0  0
  6  9  1  0  0  0  0
  6  5  2  0  0  0  0
  7  8  1  0  0  0  0
  8  1  1  0  0  0  0
 10  9  1  0  0  0  0
 11  3  1  0  0  0  0
 12 11  1  0  0  0  0
 13 12  1  0  0  0  0
 14 13  2  0  0  0  0
M  END
>  <MODEL>
6

>  <REMARK>
 VINA RESULT:    -4.476     15.142     15.654
 INTER + INTRA:          -5.842
 INTER:                  -5.652
 INTRA:                  -0.190
 UNBOUND:                -0.188
  Name = CHEMBL4207280
  6 active torsions:
  status: ('A' for Active; 'I' for Inactive)
    1  A    between atoms: C_1  and  O_2
    2  A    between atoms: O_2  and  C_3
    3  A    between atoms: C_5  and  C_6
    4  A    between atoms: C_6  and  C_7
    5  A    between atoms: C_7  and  C_8
    6  A    between atoms: C_12  and  O_13
                            x       y       z     vdW  Elec       q    Type
                         _______ _______ _______ _____ _____    ______ ____

>  <TORSDO>
F 5

>  <SCORE>
-4.476

>  <RMSD_LB>
15.142

>  <RMSD_UB>
15.654

$$$$
CHEMBL4207280
 OpenBabel10162523583D

 14 14  0  0  0  0  0  0  0  0999 V2000
  146.6700  140.5600  154.0020 C   0  0  0  0  0  0  0  0  0  0  0  0
  145.6970  139.5970  153.7100 C   0  0  0  0  0  3  0  0  0  0  0  0
  145.9150  138.2370  153.9940 C   0  0  0  0  0  0  0  0  0  0  0  0
  147.1230  137.8550  154.5930 C   0  0  0  0  0  3  0  0  0  0  0  0
  148.1000  138.8060  154.8910 C   0  0  0  0  0  3  0  0  0  0  0  0
  147.8720  140.1480  154.5920 C   0  0  0  0  0  0  0  0  0  0  0  0
  146.1260  142.2950  152.4580 C   0  0  0  0  0  1  0  0  0  0  0  0
  146.5410  141.9040  153.7590 O   0  0  0  0  0  0  0  0  0  0  0  0
  148.8360  141.0780  154.8820 O   0  0  0  0  0  0  0  0  0  0  0  0
  148.8730  141.4640  155.7350 H   0  0  0  0  0  0  0  0  0  0  0  0
  144.8500  137.2010  153.7090 C   0  0  0  0  0  2  0  0  0  0  0  0
  144.4170  137.1620  152.2460 C   0  0  0  0  0  2  0  0  0  0  0  0
  145.5410  136.7200  151.3420 C   0  0  0  0  0  3  0  0  0  0  0  0
  146.1740  135.6790  151.4780 O   0  0  0  0  0  0  0  0  0  0  0  0
  1  6  1  0  0  0  0
  2  3  1  0  0  0  0
  2  1  2  0  0  0  0
  3  4  2  0  0  0  0
  4  5  1  0  0  0  0
  6  9  1  0  0  0  0
  6  5  2  0  0  0  0
  7  8  1  0  0  0  0
  8  1  1  0  0  0  0
  9 10  1  0  0  0  0
 11  3  1  0  0  0  0
 12 11  1  0  0  0  0
 13 14  2  0  0  0  0
 13 12  1  0  0  0  0
M  END
>  <MODEL>
7

>  <REMARK>
 VINA RESULT:    -4.417      2.324      4.166
 INTER + INTRA:          -5.768
 INTER:                  -5.497
 INTRA:                  -0.270
 UNBOUND:                -0.188
  Name = CHEMBL4207280
  6 active torsions:
  status: ('A' for Active; 'I' for Inactive)
    1  A    between atoms: C_1  and  O_2
    2  A    between atoms: O_2  and  C_3
    3  A    between atoms: C_5  and  C_6
    4  A    between atoms: C_6  and  C_7
    5  A    between atoms: C_7  and  C_8
    6  A    between atoms: C_12  and  O_13
                            x       y       z     vdW  Elec       q    Type
                         _______ _______ _______ _____ _____    ______ ____

>  <TORSDO>
F 5

>  <SCORE>
-4.417

>  <RMSD_LB>
2.324

>  <RMSD_UB>
4.166

$$$$
CHEMBL4207280
 OpenBabel10162523583D

 14 14  0  0  0  0  0  0  0  0999 V2000
  147.4040  138.2620  153.0920 C   0  0  0  0  0  0  0  0  0  0  0  0
  147.4090  139.6260  152.7760 C   0  0  0  0  0  3  0  0  0  0  0  0
  146.3790  140.4760  153.2150 C   0  0  0  0  0  0  0  0  0  0  0  0
  145.3440  139.9400  153.9930 C   0  0  0  0  0  3  0  0  0  0  0  0
  145.3290  138.5830  154.3180 C   0  0  0  0  0  3  0  0  0  0  0  0
  146.3520  137.7530  153.8630 C   0  0  0  0  0  0  0  0  0  0  0  0
  149.6170  137.4210  153.3740 C   0  0  0  0  0  1  0  0  0  0  0  0
  148.3650  137.3640  152.7060 O   0  0  0  0  0  0  0  0  0  0  0  0
  146.3300  136.4200  154.1800 O   0  0  0  0  0  0  0  0  0  0  0  0
  146.6980  136.1240  154.9900 H   0  0  0  0  0  0  0  0  0  0  0  0
  146.4020  141.9560  152.9010 C   0  0  0  0  0  2  0  0  0  0  0  0
  145.5390  142.3360  151.7010 C   0  0  0  0  0  2  0  0  0  0  0  0
  146.3670  142.5050  150.4500 C   0  0  0  0  0  3  0  0  0  0  0  0
  146.5050  141.6470  149.5860 O   0  0  0  0  0  0  0  0  0  0  0  0
  1  6  1  0  0  0  0
  2  1  2  0  0  0  0
  2  3  1  0  0  0  0
  3  4  2  0  0  0  0
  4  5  1  0  0  0  0
  6  9  1  0  0  0  0
  6  5  2  0  0  0  0
  8  1  1  0  0  0  0
  8  7  1  0  0  0  0
  9 10  1  0  0  0  0
 11  3  1  0  0  0  0
 12 11  1  0  0  0  0
 13 12  1  0  0  0  0
 14 13  2  0  0  0  0
M  END
>  <MODEL>
8

>  <REMARK>
 VINA RESULT:    -4.398      1.932      2.952
 INTER + INTRA:          -5.743
 INTER:                  -5.491
 INTRA:                  -0.253
 UNBOUND:                -0.188
  Name = CHEMBL4207280
  6 active torsions:
  status: ('A' for Active; 'I' for Inactive)
    1  A    between atoms: C_1  and  O_2
    2  A    between atoms: O_2  and  C_3
    3  A    between atoms: C_5  and  C_6
    4  A    between atoms: C_6  and  C_7
    5  A    between atoms: C_7  and  C_8
    6  A    between atoms: C_12  and  O_13
                            x       y       z     vdW  Elec       q    Type
                         _______ _______ _______ _____ _____    ______ ____

>  <TORSDO>
F 5

>  <SCORE>
-4.398

>  <RMSD_LB>
1.932

>  <RMSD_UB>
2.952

$$$$
CHEMBL4207280
 OpenBabel10162523583D

 14 14  0  0  0  0  0  0  0  0999 V2000
  146.7730  140.2590  149.8030 C   0  0  0  0  0  0  0  0  0  0  0  0
  147.1430  140.0890  151.1420 C   0  0  0  0  0  3  0  0  0  0  0  0
  147.1350  141.1720  152.0400 C   0  0  0  0  0  0  0  0  0  0  0  0
  146.7330  142.4320  151.5770 C   0  0  0  0  0  3  0  0  0  0  0  0
  146.3590  142.6140  150.2450 C   0  0  0  0  0  3  0  0  0  0  0  0
  146.3850  141.5320  149.3660 C   0  0  0  0  0  0  0  0  0  0  0  0
  145.7620  138.2530  149.0010 C   0  0  0  0  0  1  0  0  0  0  0  0
  146.7530  139.2610  148.8620 O   0  0  0  0  0  0  0  0  0  0  0  0
  146.0220  141.7160  148.0580 O   0  0  0  0  0  0  0  0  0  0  0  0
  145.2390  142.1870  147.8500 H   0  0  0  0  0  0  0  0  0  0  0  0
  147.5030  140.9810  153.4940 C   0  0  0  0  0  2  0  0  0  0  0  0
  148.1730  139.6390  153.7810 C   0  0  0  0  0  2  0  0  0  0  0  0
  147.7510  139.0800  155.1170 C   0  0  0  0  0  3  0  0  0  0  0  0
  146.8840  138.2280  155.2720 O   0  0  0  0  0  0  0  0  0  0  0  0
  1  2  1  0  0  0  0
  2  3  2  0  0  0  0
  3 11  1  0  0  0  0
  4  3  1  0  0  0  0
  5  4  2  0  0  0  0
  6  1  2  0  0  0  0
  6  5  1  0  0  0  0
  8  7  1  0  0  0  0
  8  1  1  0  0  0  0
  9  6  1  0  0  0  0
 10  9  1  0  0  0  0
 11 12  1  0  0  0  0
 12 13  1  0  0  0  0
 13 14  2  0  0  0  0
M  END
>  <MODEL>
9

>  <REMARK>
 VINA RESULT:    -4.287      1.543      5.154
 INTER + INTRA:          -5.603
 INTER:                  -5.414
 INTRA:                  -0.188
 UNBOUND:                -0.188
  Name = CHEMBL4207280
  6 active torsions:
  status: ('A' for Active; 'I' for Inactive)
    1  A    between atoms: C_1  and  O_2
    2  A    between atoms: O_2  and  C_3
    3  A    between atoms: C_5  and  C_6
    4  A    between atoms: C_6  and  C_7
    5  A    between atoms: C_7  and  C_8
    6  A    between atoms: C_12  and  O_13
                            x       y       z     vdW  Elec       q    Type
                         _______ _______ _______ _____ _____    ______ ____

>  <TORSDO>
F 5

>  <SCORE>
-4.287

>  <RMSD_LB>
1.543

>  <RMSD_UB>
5.154

$$$$
