CHEMBL5022532
 OpenBabel10162523583D

 21 21  0  0  0  0  0  0  0  0999 V2000
  146.5950  142.1260  153.8630 C   0  0  0  0  0  2  0  0  0  0  0  0
  146.0150  141.2320  149.6550 C   0  0  0  0  0  0  0  0  0  0  0  0
  147.1150  141.9820  150.0910 C   0  0  0  0  0  3  0  0  0  0  0  0
  147.2980  142.2750  151.4460 C   0  0  0  0  0  3  0  0  0  0  0  0
  146.3710  141.8410  152.3970 C   0  0  0  0  0  0  0  0  0  0  0  0
  145.2610  141.1060  151.9640 C   0  0  0  0  0  3  0  0  0  0  0  0
  145.0810  140.7880  150.6080 C   0  0  0  0  0  0  0  0  0  0  0  0
  146.4880  139.8940  147.7470 C   0  0  0  0  0  1  0  0  0  0  0  0
  145.7700  140.9730  148.3330 O   0  0  0  0  0  0  0  0  0  0  0  0
  143.9310  140.0780  150.3620 O   0  0  0  0  0  0  0  0  0  0  0  0
  143.1270  139.7760  151.4960 C   0  0  0  0  0  1  0  0  0  0  0  0
  148.0270  141.7810  154.2850 C   0  0  0  0  0  2  0  0  0  0  0  0
  148.1240  140.5020  154.9700 N   0  0  0  0  0  0  0  0  0  0  0  0
  148.4190  139.3410  154.2900 C   0  0  0  0  0  0  0  0  0  0  0  0
  148.6410  139.2990  153.0850 O   0  0  0  0  0  0  0  0  0  0  0  0
  147.9770  140.4650  155.9420 H   0  0  0  0  0  0  0  0  0  0  0  0
  148.3910  138.0920  155.1430 C   0  0  0  0  0  2  0  0  0  0  0  0
  147.6440  138.3040  156.4560 C   0  0  0  0  0  2  0  0  0  0  0  0
  148.4170  137.8050  157.6730 C   0  0  0  0  0  2  0  0  0  0  0  0
  147.9180  138.4460  158.8410 O   0  0  0  0  0  0  0  0  0  0  0  0
  147.1290  137.9770  159.1550 H   0  0  0  0  0  0  0  0  0  0  0  0
  1 12  1  0  0  0  0
  2  3  2  0  0  0  0
  2  7  1  0  0  0  0
  3  4  1  0  0  0  0
  4  5  2  0  0  0  0
  5  1  1  0  0  0  0
  6  5  1  0  0  0  0
  7  6  2  0  0  0  0
  8  9  1  0  0  0  0
  9  2  1  0  0  0  0
 10  7  1  0  0  0  0
 10 11  1  0  0  0  0
 12 13  1  0  0  0  0
 13 16  1  0  0  0  0
 14 13  1  0  0  0  0
 14 17  1  0  0  0  0
 15 14  2  0  0  0  0
 17 18  1  0  0  0  0
 18 19  1  0  0  0  0
 19 20  1  0  0  0  0
 20 21  1  0  0  0  0
M  END
>  <MODEL>
1

>  <REMARK>
 VINA RESULT:    -6.096      0.000      0.000
 INTER + INTRA:          -9.953
 INTER:                  -9.260
 INTRA:                  -0.693
 UNBOUND:                -0.828
  Name = CHEMBL5022532
  11 active torsions:
  status: ('A' for Active; 'I' for Inactive)
    1  A    between atoms: C_1  and  O_2
    2  A    between atoms: O_2  and  C_3
    3  A    between atoms: C_6  and  C_7
    4  A    between atoms: C_7  and  C_8
    5  A    between atoms: C_8  and  N_9
    6  A    between atoms: C_10  and  C_12
    7  A    between atoms: C_12  and  C_13
    8  A    between atoms: C_13  and  C_14
    9  A    between atoms: C_14  and  O_15
   10  A    between atoms: C_17  and  O_18
   11  A    between atoms: O_18  and  C_19
                            x       y       z     vdW  Elec       q    Type
                         _______ _______ _______ _____ _____    ______ ____

>  <TORSDO>
F 9

>  <SCORE>
-6.096

>  <RMSD_LB>
0.000

>  <RMSD_UB>
0.000

$$$$
CHEMBL5022532
 OpenBabel10162523583D

 21 21  0  0  0  0  0  0  0  0999 V2000
  135.3040  135.0460  153.8690 C   0  0  0  0  0  2  0  0  0  0  0  0
  135.4990  135.3040  158.1970 C   0  0  0  0  0  0  0  0  0  0  0  0
  134.4060  134.7070  157.5560 C   0  0  0  0  0  3  0  0  0  0  0  0
  134.3410  134.6300  156.1610 C   0  0  0  0  0  3  0  0  0  0  0  0
  135.3610  135.1680  155.3730 C   0  0  0  0  0  0  0  0  0  0  0  0
  136.4470  135.7810  156.0090 C   0  0  0  0  0  3  0  0  0  0  0  0
  136.5310  135.8430  157.4100 C   0  0  0  0  0  0  0  0  0  0  0  0
  134.3640  135.2830  160.2870 C   0  0  0  0  0  1  0  0  0  0  0  0
  135.5730  135.4510  159.5570 O   0  0  0  0  0  0  0  0  0  0  0  0
  137.6540  136.4950  157.8600 O   0  0  0  0  0  0  0  0  0  0  0  0
  137.5230  137.8970  158.0660 C   0  0  0  0  0  1  0  0  0  0  0  0
  133.8880  135.3020  153.3420 C   0  0  0  0  0  2  0  0  0  0  0  0
  133.4820  134.3520  152.3200 N   0  0  0  0  0  0  0  0  0  0  0  0
  132.9110  134.7650  151.1370 C   0  0  0  0  0  0  0  0  0  0  0  0
  132.7250  135.9420  150.8500 O   0  0  0  0  0  0  0  0  0  0  0  0
  133.6190  133.3890  152.4770 H   0  0  0  0  0  0  0  0  0  0  0  0
  132.4670  133.6400  150.2280 C   0  0  0  0  0  2  0  0  0  0  0  0
  133.5560  133.2270  149.2440 C   0  0  0  0  0  2  0  0  0  0  0  0
  133.3610  133.8170  147.8510 C   0  0  0  0  0  2  0  0  0  0  0  0
  131.9990  133.6720  147.4650 O   0  0  0  0  0  0  0  0  0  0  0  0
  131.7680  132.7300  147.4440 H   0  0  0  0  0  0  0  0  0  0  0  0
  1  5  1  0  0  0  0
  2  9  1  0  0  0  0
  3  2  1  0  0  0  0
  4  3  2  0  0  0  0
  5  6  2  0  0  0  0
  5  4  1  0  0  0  0
  6  7  1  0  0  0  0
  7 10  1  0  0  0  0
  7  2  2  0  0  0  0
  9  8  1  0  0  0  0
 10 11  1  0  0  0  0
 12  1  1  0  0  0  0
 13 16  1  0  0  0  0
 13 12  1  0  0  0  0
 14 13  1  0  0  0  0
 15 14  2  0  0  0  0
 17 14  1  0  0  0  0
 18 17  1  0  0  0  0
 19 18  1  0  0  0  0
 20 19  1  0  0  0  0
 21 20  1  0  0  0  0
M  END
>  <MODEL>
2

>  <REMARK>
 VINA RESULT:    -5.804     11.816     15.372
 INTER + INTRA:          -9.516
 INTER:                  -9.121
 INTRA:                  -0.396
 UNBOUND:                -0.828
  Name = CHEMBL5022532
  11 active torsions:
  status: ('A' for Active; 'I' for Inactive)
    1  A    between atoms: C_1  and  O_2
    2  A    between atoms: O_2  and  C_3
    3  A    between atoms: C_6  and  C_7
    4  A    between atoms: C_7  and  C_8
    5  A    between atoms: C_8  and  N_9
    6  A    between atoms: C_10  and  C_12
    7  A    between atoms: C_12  and  C_13
    8  A    between atoms: C_13  and  C_14
    9  A    between atoms: C_14  and  O_15
   10  A    between atoms: C_17  and  O_18
   11  A    between atoms: O_18  and  C_19
                            x       y       z     vdW  Elec       q    Type
                         _______ _______ _______ _____ _____    ______ ____

>  <TORSDO>
F 9

>  <SCORE>
-5.804

>  <RMSD_LB>
11.816

>  <RMSD_UB>
15.372

$$$$
CHEMBL5022532
 OpenBabel10162523583D

 21 21  0  0  0  0  0  0  0  0999 V2000
  133.7720  135.0680  151.7470 C   0  0  0  0  0  2  0  0  0  0  0  0
  133.7680  133.5550  147.6790 C   0  0  0  0  0  0  0  0  0  0  0  0
  133.9560  132.6970  148.7710 C   0  0  0  0  0  3  0  0  0  0  0  0
  133.9630  133.1860  150.0810 C   0  0  0  0  0  3  0  0  0  0  0  0
  133.8030  134.5520  150.3280 C   0  0  0  0  0  0  0  0  0  0  0  0
  133.6320  135.4150  149.2390 C   0  0  0  0  0  3  0  0  0  0  0  0
  133.6010  134.9290  147.9220 C   0  0  0  0  0  0  0  0  0  0  0  0
  135.0810  133.1510  145.7380 C   0  0  0  0  0  1  0  0  0  0  0  0
  133.8120  133.1240  146.3800 O   0  0  0  0  0  0  0  0  0  0  0  0
  133.4440  135.9170  146.9800 O   0  0  0  0  0  0  0  0  0  0  0  0
  132.3360  136.7900  147.1670 C   0  0  0  0  0  1  0  0  0  0  0  0
  134.3230  134.0300  152.7300 C   0  0  0  0  0  2  0  0  0  0  0  0
  135.2530  134.5970  153.6930 N   0  0  0  0  0  0  0  0  0  0  0  0
  134.8240  135.0890  154.9060 C   0  0  0  0  0  0  0  0  0  0  0  0
  133.6540  135.0660  155.2710 O   0  0  0  0  0  0  0  0  0  0  0  0
  136.2120  134.6300  153.4730 H   0  0  0  0  0  0  0  0  0  0  0  0
  135.9120  135.7230  155.7440 C   0  0  0  0  0  2  0  0  0  0  0  0
  136.8240  136.6260  154.9220 C   0  0  0  0  0  2  0  0  0  0  0  0
  137.4150  137.7780  155.7290 C   0  0  0  0  0  2  0  0  0  0  0  0
  137.0560  139.0130  155.1190 O   0  0  0  0  0  0  0  0  0  0  0  0
  136.2710  138.8830  154.5640 H   0  0  0  0  0  0  0  0  0  0  0  0
  1 12  1  0  0  0  0
  2  7  2  0  0  0  0
  2  3  1  0  0  0  0
  3  4  2  0  0  0  0
  4  5  1  0  0  0  0
  5  1  1  0  0  0  0
  6  5  2  0  0  0  0
  7  6  1  0  0  0  0
  8  9  1  0  0  0  0
  9  2  1  0  0  0  0
 10 11  1  0  0  0  0
 10  7  1  0  0  0  0
 12 13  1  0  0  0  0
 13 14  1  0  0  0  0
 14 15  2  0  0  0  0
 14 17  1  0  0  0  0
 16 13  1  0  0  0  0
 18 19  1  0  0  0  0
 18 17  1  0  0  0  0
 20 19  1  0  0  0  0
 21 20  1  0  0  0  0
M  END
>  <MODEL>
3

>  <REMARK>
 VINA RESULT:    -5.781     11.038     13.829
 INTER + INTRA:          -9.482
 INTER:                  -9.052
 INTRA:                  -0.430
 UNBOUND:                -0.828
  Name = CHEMBL5022532
  11 active torsions:
  status: ('A' for Active; 'I' for Inactive)
    1  A    between atoms: C_1  and  O_2
    2  A    between atoms: O_2  and  C_3
    3  A    between atoms: C_6  and  C_7
    4  A    between atoms: C_7  and  C_8
    5  A    between atoms: C_8  and  N_9
    6  A    between atoms: C_10  and  C_12
    7  A    between atoms: C_12  and  C_13
    8  A    between atoms: C_13  and  C_14
    9  A    between atoms: C_14  and  O_15
   10  A    between atoms: C_17  and  O_18
   11  A    between atoms: O_18  and  C_19
                            x       y       z     vdW  Elec       q    Type
                         _______ _______ _______ _____ _____    ______ ____

>  <TORSDO>
F 9

>  <SCORE>
-5.781

>  <RMSD_LB>
11.038

>  <RMSD_UB>
13.829

$$$$
CHEMBL5022532
 OpenBabel10162523583D

 21 21  0  0  0  0  0  0  0  0999 V2000
  135.8120  135.3210  153.5730 C   0  0  0  0  0  2  0  0  0  0  0  0
  137.4160  137.5310  156.9460 C   0  0  0  0  0  0  0  0  0  0  0  0
  136.5180  136.4730  157.1360 C   0  0  0  0  0  3  0  0  0  0  0  0
  135.9970  135.7650  156.0480 C   0  0  0  0  0  3  0  0  0  0  0  0
  136.3470  136.1150  154.7410 C   0  0  0  0  0  0  0  0  0  0  0  0
  137.2310  137.1830  154.5470 C   0  0  0  0  0  3  0  0  0  0  0  0
  137.7770  137.8840  155.6340 C   0  0  0  0  0  0  0  0  0  0  0  0
  137.6490  137.8090  159.2970 C   0  0  0  0  0  1  0  0  0  0  0  0
  137.9040  138.2850  157.9810 O   0  0  0  0  0  0  0  0  0  0  0  0
  138.6080  138.9110  155.2590 O   0  0  0  0  0  0  0  0  0  0  0  0
  139.9060  138.5350  154.8120 C   0  0  0  0  0  1  0  0  0  0  0  0
  134.2940  135.4820  153.4390 C   0  0  0  0  0  2  0  0  0  0  0  0
  133.7060  134.5500  152.4910 N   0  0  0  0  0  0  0  0  0  0  0  0
  133.1660  134.9790  151.2990 C   0  0  0  0  0  0  0  0  0  0  0  0
  133.1600  136.1510  150.9400 O   0  0  0  0  0  0  0  0  0  0  0  0
  133.6930  133.5900  152.7060 H   0  0  0  0  0  0  0  0  0  0  0  0
  132.5170  133.8870  150.4770 C   0  0  0  0  0  2  0  0  0  0  0  0
  133.3810  133.4590  149.2970 C   0  0  0  0  0  2  0  0  0  0  0  0
  132.6290  133.4600  147.9700 C   0  0  0  0  0  2  0  0  0  0  0  0
  132.5930  134.7840  147.4510 O   0  0  0  0  0  0  0  0  0  0  0  0
  132.1710  135.3730  148.0960 H   0  0  0  0  0  0  0  0  0  0  0  0
  1  5  1  0  0  0  0
  2  3  1  0  0  0  0
  2  9  1  0  0  0  0
  4  3  2  0  0  0  0
  5  4  1  0  0  0  0
  6  5  2  0  0  0  0
  6  7  1  0  0  0  0
  7  2  2  0  0  0  0
  9  8  1  0  0  0  0
 10  7  1  0  0  0  0
 11 10  1  0  0  0  0
 12  1  1  0  0  0  0
 13 16  1  0  0  0  0
 13 12  1  0  0  0  0
 14 13  1  0  0  0  0
 15 14  2  0  0  0  0
 17 14  1  0  0  0  0
 18 17  1  0  0  0  0
 19 18  1  0  0  0  0
 20 19  1  0  0  0  0
 20 21  1  0  0  0  0
M  END
>  <MODEL>
4

>  <REMARK>
 VINA RESULT:    -5.765     10.201     14.062
 INTER + INTRA:          -9.458
 INTER:                  -9.059
 INTRA:                  -0.399
 UNBOUND:                -0.828
  Name = CHEMBL5022532
  11 active torsions:
  status: ('A' for Active; 'I' for Inactive)
    1  A    between atoms: C_1  and  O_2
    2  A    between atoms: O_2  and  C_3
    3  A    between atoms: C_6  and  C_7
    4  A    between atoms: C_7  and  C_8
    5  A    between atoms: C_8  and  N_9
    6  A    between atoms: C_10  and  C_12
    7  A    between atoms: C_12  and  C_13
    8  A    between atoms: C_13  and  C_14
    9  A    between atoms: C_14  and  O_15
   10  A    between atoms: C_17  and  O_18
   11  A    between atoms: O_18  and  C_19
                            x       y       z     vdW  Elec       q    Type
                         _______ _______ _______ _____ _____    ______ ____

>  <TORSDO>
F 9

>  <SCORE>
-5.765

>  <RMSD_LB>
10.201

>  <RMSD_UB>
14.062

$$$$
CHEMBL5022532
 OpenBabel10162523583D

 21 21  0  0  0  0  0  0  0  0999 V2000
  148.8010  141.9400  152.8180 C   0  0  0  0  0  2  0  0  0  0  0  0
  145.1130  140.7970  150.8370 C   0  0  0  0  0  0  0  0  0  0  0  0
  145.1980  141.9810  151.5800 C   0  0  0  0  0  3  0  0  0  0  0  0
  146.3860  142.3460  152.2230 C   0  0  0  0  0  3  0  0  0  0  0  0
  147.5110  141.5220  152.1550 C   0  0  0  0  0  0  0  0  0  0  0  0
  147.4250  140.3280  151.4280 C   0  0  0  0  0  3  0  0  0  0  0  0
  146.2440  139.9650  150.7600 C   0  0  0  0  0  0  0  0  0  0  0  0
  142.9430  139.8600  151.0980 C   0  0  0  0  0  1  0  0  0  0  0  0
  143.9540  140.3760  150.2410 O   0  0  0  0  0  0  0  0  0  0  0  0
  146.3330  138.7570  150.1130 O   0  0  0  0  0  0  0  0  0  0  0  0
  146.6240  138.8110  148.7210 C   0  0  0  0  0  1  0  0  0  0  0  0
  149.0150  141.1950  154.1400 C   0  0  0  0  0  2  0  0  0  0  0  0
  147.7890  140.6300  154.6790 N   0  0  0  0  0  0  0  0  0  0  0  0
  147.6620  139.2800  154.9190 C   0  0  0  0  0  0  0  0  0  0  0  0
  148.5600  138.4690  154.7220 O   0  0  0  0  0  0  0  0  0  0  0  0
  147.0320  141.2270  154.8780 H   0  0  0  0  0  0  0  0  0  0  0  0
  146.2890  138.8550  155.3930 C   0  0  0  0  0  2  0  0  0  0  0  0
  145.2070  139.1330  154.3560 C   0  0  0  0  0  2  0  0  0  0  0  0
  143.9310  139.7110  154.9610 C   0  0  0  0  0  2  0  0  0  0  0  0
  144.0670  139.7720  156.3760 O   0  0  0  0  0  0  0  0  0  0  0  0
  144.0440  140.6990  156.6630 H   0  0  0  0  0  0  0  0  0  0  0  0
  1 12  1  0  0  0  0
  2  3  1  0  0  0  0
  3  4  2  0  0  0  0
  5  4  1  0  0  0  0
  5  1  1  0  0  0  0
  6  5  2  0  0  0  0
  7  2  2  0  0  0  0
  7  6  1  0  0  0  0
  9  2  1  0  0  0  0
  9  8  1  0  0  0  0
 10  7  1  0  0  0  0
 11 10  1  0  0  0  0
 12 13  1  0  0  0  0
 13 16  1  0  0  0  0
 13 14  1  0  0  0  0
 14 17  1  0  0  0  0
 15 14  2  0  0  0  0
 18 19  1  0  0  0  0
 18 17  1  0  0  0  0
 19 20  1  0  0  0  0
 20 21  1  0  0  0  0
M  END
>  <MODEL>
5

>  <REMARK>
 VINA RESULT:    -5.631      1.989      2.903
 INTER + INTRA:          -9.258
 INTER:                  -8.414
 INTRA:                  -0.844
 UNBOUND:                -0.828
  Name = CHEMBL5022532
  11 active torsions:
  status: ('A' for Active; 'I' for Inactive)
    1  A    between atoms: C_1  and  O_2
    2  A    between atoms: O_2  and  C_3
    3  A    between atoms: C_6  and  C_7
    4  A    between atoms: C_7  and  C_8
    5  A    between atoms: C_8  and  N_9
    6  A    between atoms: C_10  and  C_12
    7  A    between atoms: C_12  and  C_13
    8  A    between atoms: C_13  and  C_14
    9  A    between atoms: C_14  and  O_15
   10  A    between atoms: C_17  and  O_18
   11  A    between atoms: O_18  and  C_19
                            x       y       z     vdW  Elec       q    Type
                         _______ _______ _______ _____ _____    ______ ____

>  <TORSDO>
F 9

>  <SCORE>
-5.631

>  <RMSD_LB>
1.989

>  <RMSD_UB>
2.903

$$$$
CHEMBL5022532
 OpenBabel10162523583D

 21 21  0  0  0  0  0  0  0  0999 V2000
  135.4440  135.3340  153.8620 C   0  0  0  0  0  2  0  0  0  0  0  0
  136.4700  135.8090  158.0520 C   0  0  0  0  0  0  0  0  0  0  0  0
  137.3530  136.2090  157.0410 C   0  0  0  0  0  3  0  0  0  0  0  0
  137.0240  136.0500  155.6910 C   0  0  0  0  0  3  0  0  0  0  0  0
  135.8100  135.4660  155.3210 C   0  0  0  0  0  0  0  0  0  0  0  0
  134.9320  135.0490  156.3280 C   0  0  0  0  0  3  0  0  0  0  0  0
  135.2440  135.2250  157.6860 C   0  0  0  0  0  0  0  0  0  0  0  0
  137.1620  137.1740  159.8720 C   0  0  0  0  0  1  0  0  0  0  0  0
  136.7780  135.8940  159.3840 O   0  0  0  0  0  0  0  0  0  0  0  0
  134.2780  134.7420  158.5350 O   0  0  0  0  0  0  0  0  0  0  0  0
  133.9150  135.5910  159.6180 C   0  0  0  0  0  1  0  0  0  0  0  0
  133.9240  135.3260  153.6680 C   0  0  0  0  0  2  0  0  0  0  0  0
  133.4860  134.3910  152.6450 N   0  0  0  0  0  0  0  0  0  0  0  0
  133.2490  134.7970  151.3500 C   0  0  0  0  0  0  0  0  0  0  0  0
  133.4060  135.9490  150.9620 O   0  0  0  0  0  0  0  0  0  0  0  0
  133.3580  133.4440  152.8820 H   0  0  0  0  0  0  0  0  0  0  0  0
  132.7130  133.7130  150.4420 C   0  0  0  0  0  2  0  0  0  0  0  0
  133.7610  133.2170  149.4520 C   0  0  0  0  0  2  0  0  0  0  0  0
  133.4900  133.6610  148.0170 C   0  0  0  0  0  2  0  0  0  0  0  0
  132.0850  133.6850  147.7900 O   0  0  0  0  0  0  0  0  0  0  0  0
  131.7680  134.6000  147.8270 H   0  0  0  0  0  0  0  0  0  0  0  0
  1  5  1  0  0  0  0
  2  9  1  0  0  0  0
  3  2  2  0  0  0  0
  4  3  1  0  0  0  0
  5  4  2  0  0  0  0
  5  6  1  0  0  0  0
  6  7  2  0  0  0  0
  7  2  1  0  0  0  0
  7 10  1  0  0  0  0
  9  8  1  0  0  0  0
 10 11  1  0  0  0  0
 12  1  1  0  0  0  0
 13 16  1  0  0  0  0
 13 12  1  0  0  0  0
 14 13  1  0  0  0  0
 15 14  2  0  0  0  0
 17 14  1  0  0  0  0
 18 17  1  0  0  0  0
 19 18  1  0  0  0  0
 20 21  1  0  0  0  0
 20 19  1  0  0  0  0
M  END
>  <MODEL>
6

>  <REMARK>
 VINA RESULT:    -5.604     12.018     15.074
 INTER + INTRA:          -9.217
 INTER:                  -9.215
 INTRA:                  -0.002
 UNBOUND:                -0.828
  Name = CHEMBL5022532
  11 active torsions:
  status: ('A' for Active; 'I' for Inactive)
    1  A    between atoms: C_1  and  O_2
    2  A    between atoms: O_2  and  C_3
    3  A    between atoms: C_6  and  C_7
    4  A    between atoms: C_7  and  C_8
    5  A    between atoms: C_8  and  N_9
    6  A    between atoms: C_10  and  C_12
    7  A    between atoms: C_12  and  C_13
    8  A    between atoms: C_13  and  C_14
    9  A    between atoms: C_14  and  O_15
   10  A    between atoms: C_17  and  O_18
   11  A    between atoms: O_18  and  C_19
                            x       y       z     vdW  Elec       q    Type
                         _______ _______ _______ _____ _____    ______ ____

>  <TORSDO>
F 9

>  <SCORE>
-5.604

>  <RMSD_LB>
12.018

>  <RMSD_UB>
15.074

$$$$
CHEMBL5022532
 OpenBabel10162523583D

 21 21  0  0  0  0  0  0  0  0999 V2000
  144.2330  138.1780  153.8000 C   0  0  0  0  0  2  0  0  0  0  0  0
  139.9750  138.0090  152.9750 C   0  0  0  0  0  0  0  0  0  0  0  0
  140.9160  137.6570  151.9980 C   0  0  0  0  0  3  0  0  0  0  0  0
  142.2880  137.7180  152.2630 C   0  0  0  0  0  3  0  0  0  0  0  0
  142.7520  138.1530  153.5070 C   0  0  0  0  0  0  0  0  0  0  0  0
  141.8150  138.5210  154.4800 C   0  0  0  0  0  3  0  0  0  0  0  0
  140.4350  138.4420  154.2310 C   0  0  0  0  0  0  0  0  0  0  0  0
  138.1700  137.2870  151.6050 C   0  0  0  0  0  1  0  0  0  0  0  0
  138.6260  138.0180  152.7370 O   0  0  0  0  0  0  0  0  0  0  0  0
  139.6650  138.8590  155.2890 O   0  0  0  0  0  0  0  0  0  0  0  0
  139.2690  137.8510  156.2120 C   0  0  0  0  0  1  0  0  0  0  0  0
  144.5720  139.2250  154.8650 C   0  0  0  0  0  2  0  0  0  0  0  0
  145.1720  140.4270  154.3090 N   0  0  0  0  0  0  0  0  0  0  0  0
  146.5380  140.5820  154.2330 C   0  0  0  0  0  0  0  0  0  0  0  0
  147.3380  139.7280  154.5980 O   0  0  0  0  0  0  0  0  0  0  0  0
  144.5880  141.1470  153.9790 H   0  0  0  0  0  0  0  0  0  0  0  0
  146.9880  141.9290  153.7120 C   0  0  0  0  0  2  0  0  0  0  0  0
  147.2270  141.9180  152.2060 C   0  0  0  0  0  2  0  0  0  0  0  0
  148.6370  141.4790  151.8250 C   0  0  0  0  0  2  0  0  0  0  0  0
  149.5540  141.9300  152.8160 O   0  0  0  0  0  0  0  0  0  0  0  0
  149.4420  142.8850  152.9490 H   0  0  0  0  0  0  0  0  0  0  0  0
  1 12  1  0  0  0  0
  2  7  1  0  0  0  0
  3  4  1  0  0  0  0
  3  2  2  0  0  0  0
  4  5  2  0  0  0  0
  5  1  1  0  0  0  0
  5  6  1  0  0  0  0
  7  6  2  0  0  0  0
  7 10  1  0  0  0  0
  8  9  1  0  0  0  0
  9  2  1  0  0  0  0
 10 11  1  0  0  0  0
 13 12  1  0  0  0  0
 14 13  1  0  0  0  0
 14 15  2  0  0  0  0
 16 13  1  0  0  0  0
 17 14  1  0  0  0  0
 18 17  1  0  0  0  0
 19 18  1  0  0  0  0
 19 20  1  0  0  0  0
 20 21  1  0  0  0  0
M  END
>  <MODEL>
7

>  <REMARK>
 VINA RESULT:    -5.578      3.757      6.157
 INTER + INTRA:          -9.177
 INTER:                  -8.662
 INTRA:                  -0.516
 UNBOUND:                -0.828
  Name = CHEMBL5022532
  11 active torsions:
  status: ('A' for Active; 'I' for Inactive)
    1  A    between atoms: C_1  and  O_2
    2  A    between atoms: O_2  and  C_3
    3  A    between atoms: C_6  and  C_7
    4  A    between atoms: C_7  and  C_8
    5  A    between atoms: C_8  and  N_9
    6  A    between atoms: C_10  and  C_12
    7  A    between atoms: C_12  and  C_13
    8  A    between atoms: C_13  and  C_14
    9  A    between atoms: C_14  and  O_15
   10  A    between atoms: C_17  and  O_18
   11  A    between atoms: O_18  and  C_19
                            x       y       z     vdW  Elec       q    Type
                         _______ _______ _______ _____ _____    ______ ____

>  <TORSDO>
F 9

>  <SCORE>
-5.578

>  <RMSD_LB>
3.757

>  <RMSD_UB>
6.157

$$$$
CHEMBL5022532
 OpenBabel10162523583D

 21 21  0  0  0  0  0  0  0  0999 V2000
  148.4350  141.9380  152.6750 C   0  0  0  0  0  2  0  0  0  0  0  0
  146.3530  140.8980  149.0110 C   0  0  0  0  0  0  0  0  0  0  0  0
  146.6340  142.2330  149.3300 C   0  0  0  0  0  3  0  0  0  0  0  0
  147.2990  142.5670  150.5140 C   0  0  0  0  0  3  0  0  0  0  0  0
  147.6810  141.5740  151.4180 C   0  0  0  0  0  0  0  0  0  0  0  0
  147.3870  140.2390  151.1120 C   0  0  0  0  0  3  0  0  0  0  0  0
  146.7390  139.8920  149.9150 C   0  0  0  0  0  0  0  0  0  0  0  0
  146.0510  141.1320  146.6640 C   0  0  0  0  0  1  0  0  0  0  0  0
  145.6530  140.5330  147.8920 O   0  0  0  0  0  0  0  0  0  0  0  0
  146.5150  138.5430  149.7880 O   0  0  0  0  0  0  0  0  0  0  0  0
  147.0420  137.7200  150.8230 C   0  0  0  0  0  1  0  0  0  0  0  0
  147.5140  141.9240  153.9000 C   0  0  0  0  0  2  0  0  0  0  0  0
  147.5170  140.6490  154.5970 N   0  0  0  0  0  0  0  0  0  0  0  0
  146.4180  139.8190  154.5860 C   0  0  0  0  0  0  0  0  0  0  0  0
  145.3820  140.0740  153.9820 O   0  0  0  0  0  0  0  0  0  0  0  0
  148.3230  140.3710  155.0880 H   0  0  0  0  0  0  0  0  0  0  0  0
  146.5620  138.5760  155.4370 C   0  0  0  0  0  2  0  0  0  0  0  0
  147.1590  137.4080  154.6610 C   0  0  0  0  0  2  0  0  0  0  0  0
  146.1040  136.4800  154.0670 C   0  0  0  0  0  2  0  0  0  0  0  0
  144.8100  137.0170  154.3170 O   0  0  0  0  0  0  0  0  0  0  0  0
  144.8930  137.9450  154.5890 H   0  0  0  0  0  0  0  0  0  0  0  0
  1 12  1  0  0  0  0
  2  3  2  0  0  0  0
  2  7  1  0  0  0  0
  3  4  1  0  0  0  0
  4  5  2  0  0  0  0
  5  1  1  0  0  0  0
  6  5  1  0  0  0  0
  7  6  2  0  0  0  0
  8  9  1  0  0  0  0
  9  2  1  0  0  0  0
 10  7  1  0  0  0  0
 10 11  1  0  0  0  0
 12 13  1  0  0  0  0
 13 16  1  0  0  0  0
 14 13  1  0  0  0  0
 14 17  1  0  0  0  0
 15 14  2  0  0  0  0
 18 17  1  0  0  0  0
 19 20  1  0  0  0  0
 19 18  1  0  0  0  0
 20 21  1  0  0  0  0
M  END
>  <MODEL>
8

>  <REMARK>
 VINA RESULT:    -5.525      2.366      2.618
 INTER + INTRA:          -9.099
 INTER:                  -8.319
 INTRA:                  -0.780
 UNBOUND:                -0.828
  Name = CHEMBL5022532
  11 active torsions:
  status: ('A' for Active; 'I' for Inactive)
    1  A    between atoms: C_1  and  O_2
    2  A    between atoms: O_2  and  C_3
    3  A    between atoms: C_6  and  C_7
    4  A    between atoms: C_7  and  C_8
    5  A    between atoms: C_8  and  N_9
    6  A    between atoms: C_10  and  C_12
    7  A    between atoms: C_12  and  C_13
    8  A    between atoms: C_13  and  C_14
    9  A    between atoms: C_14  and  O_15
   10  A    between atoms: C_17  and  O_18
   11  A    between atoms: O_18  and  C_19
                            x       y       z     vdW  Elec       q    Type
                         _______ _______ _______ _____ _____    ______ ____

>  <TORSDO>
F 9

>  <SCORE>
-5.525

>  <RMSD_LB>
2.366

>  <RMSD_UB>
2.618

$$$$
CHEMBL5022532
 OpenBabel10162523583D

 21 21  0  0  0  0  0  0  0  0999 V2000
  146.5960  137.3120  154.1790 C   0  0  0  0  0  2  0  0  0  0  0  0
  143.0290  137.2710  151.7070 C   0  0  0  0  0  0  0  0  0  0  0  0
  142.9520  137.5120  153.0850 C   0  0  0  0  0  3  0  0  0  0  0  0
  144.1010  137.5190  153.8820 C   0  0  0  0  0  3  0  0  0  0  0  0
  145.3550  137.2640  153.3210 C   0  0  0  0  0  0  0  0  0  0  0  0
  145.4340  137.0050  151.9470 C   0  0  0  0  0  3  0  0  0  0  0  0
  144.2880  137.0180  151.1350 C   0  0  0  0  0  0  0  0  0  0  0  0
  140.6610  137.4130  151.5270 C   0  0  0  0  0  1  0  0  0  0  0  0
  141.9220  137.1980  150.9040 O   0  0  0  0  0  0  0  0  0  0  0  0
  144.5480  136.7260  149.8190 O   0  0  0  0  0  0  0  0  0  0  0  0
  145.1500  137.7640  149.0540 C   0  0  0  0  0  1  0  0  0  0  0  0
  146.5990  138.5480  155.0850 C   0  0  0  0  0  2  0  0  0  0  0  0
  146.6560  139.7960  154.3430 N   0  0  0  0  0  0  0  0  0  0  0  0
  147.8470  140.4540  154.1290 C   0  0  0  0  0  0  0  0  0  0  0  0
  148.9310  140.0360  154.5190 O   0  0  0  0  0  0  0  0  0  0  0  0
  145.8240  140.1810  153.9840 H   0  0  0  0  0  0  0  0  0  0  0  0
  147.7100  141.7830  153.4180 C   0  0  0  0  0  2  0  0  0  0  0  0
  146.2660  142.2660  153.3680 C   0  0  0  0  0  2  0  0  0  0  0  0
  145.6260  142.1040  151.9920 C   0  0  0  0  0  2  0  0  0  0  0  0
  144.7500  140.9820  152.0110 O   0  0  0  0  0  0  0  0  0  0  0  0
  144.4560  140.8170  152.9200 H   0  0  0  0  0  0  0  0  0  0  0  0
  1 12  1  0  0  0  0
  2  3  1  0  0  0  0
  3  4  2  0  0  0  0
  5  4  1  0  0  0  0
  5  1  1  0  0  0  0
  6  5  2  0  0  0  0
  7  2  2  0  0  0  0
  7  6  1  0  0  0  0
  9  8  1  0  0  0  0
  9  2  1  0  0  0  0
 10  7  1  0  0  0  0
 11 10  1  0  0  0  0
 13 12  1  0  0  0  0
 14 13  1  0  0  0  0
 14 15  2  0  0  0  0
 16 13  1  0  0  0  0
 17 14  1  0  0  0  0
 18 17  1  0  0  0  0
 19 20  1  0  0  0  0
 19 18  1  0  0  0  0
 20 21  1  0  0  0  0
M  END
>  <MODEL>
9

>  <REMARK>
 VINA RESULT:    -5.257      2.584      5.101
 INTER + INTRA:          -8.697
 INTER:                  -7.869
 INTRA:                  -0.828
 UNBOUND:                -0.828
  Name = CHEMBL5022532
  11 active torsions:
  status: ('A' for Active; 'I' for Inactive)
    1  A    between atoms: C_1  and  O_2
    2  A    between atoms: O_2  and  C_3
    3  A    between atoms: C_6  and  C_7
    4  A    between atoms: C_7  and  C_8
    5  A    between atoms: C_8  and  N_9
    6  A    between atoms: C_10  and  C_12
    7  A    between atoms: C_12  and  C_13
    8  A    between atoms: C_13  and  C_14
    9  A    between atoms: C_14  and  O_15
   10  A    between atoms: C_17  and  O_18
   11  A    between atoms: O_18  and  C_19
                            x       y       z     vdW  Elec       q    Type
                         _______ _______ _______ _____ _____    ______ ____

>  <TORSDO>
F 9

>  <SCORE>
-5.257

>  <RMSD_LB>
2.584

>  <RMSD_UB>
5.101

$$$$
