CHEMBL24056
 OpenBabel10162523553D

 22 22  0  0  0  0  0  0  0  0999 V2000
  143.4030  137.3160  151.6050 C   0  0  0  0  0  2  0  0  0  0  0  0
  144.4320  137.2820  150.4880 C   0  0  0  0  0  0  0  0  0  0  0  0
  144.4090  136.4520  149.5850 O   0  0  0  0  0  0  0  0  0  0  0  0
  145.6910  139.1060  149.4150 C   0  0  0  0  0  3  0  0  0  0  0  0
  145.4500  138.3740  150.5120 C   0  0  0  0  0  3  0  0  0  0  0  0
  146.7030  140.2120  149.3730 C   0  0  0  0  0  2  0  0  0  0  0  0
  146.0560  141.5610  149.6790 C   0  0  0  0  0  2  0  0  0  0  0  0
  147.0550  142.5170  150.3280 C   0  0  0  0  0  2  0  0  0  0  0  0
  147.4020  142.0600  151.7440 C   0  0  0  0  0  2  0  0  0  0  0  0
  145.8100  140.9110  153.3110 C   0  0  0  0  0  1  0  0  0  0  0  0
  146.2160  142.2360  152.6870 C   0  0  0  0  0  2  0  0  0  0  0  0
  141.9890  137.1090  151.0710 C   0  0  0  0  0  2  0  0  0  0  0  0
  140.9130  137.6630  151.9780 C   0  0  0  0  0  0  0  0  0  0  0  0
  139.5580  137.5240  151.6560 C   0  0  0  0  0  3  0  0  0  0  0  0
  138.5720  138.0310  152.5070 C   0  0  0  0  0  3  0  0  0  0  0  0
  138.9250  138.6770  153.6930 C   0  0  0  0  0  0  0  0  0  0  0  0
  140.2720  138.8210  154.0450 C   0  0  0  0  0  0  0  0  0  0  0  0
  141.2530  138.3100  153.1760 C   0  0  0  0  0  3  0  0  0  0  0  0
  137.9150  139.1560  154.4850 O   0  0  0  0  0  0  0  0  0  0  0  0
  137.0690  139.3220  154.1170 H   0  0  0  0  0  0  0  0  0  0  0  0
  140.7950  139.4100  155.1660 O   0  0  0  0  0  0  0  0  0  0  0  0
  142.2090  139.4610  155.2870 C   0  0  0  0  0  1  0  0  0  0  0  0
  2  5  1  0  0  0  0
  2  1  1  0  0  0  0
  3  2  2  0  0  0  0
  4  5  2  0  0  0  0
  6  4  1  0  0  0  0
  6  7  1  0  0  0  0
  7  8  1  0  0  0  0
  8  9  1  0  0  0  0
  9 11  1  0  0  0  0
 11 10  1  0  0  0  0
 12  1  1  0  0  0  0
 12 13  1  0  0  0  0
 13 18  1  0  0  0  0
 14 13  2  0  0  0  0
 14 15  1  0  0  0  0
 15 16  2  0  0  0  0
 16 17  1  0  0  0  0
 16 19  1  0  0  0  0
 17 21  1  0  0  0  0
 18 17  2  0  0  0  0
 20 19  1  0  0  0  0
 21 22  1  0  0  0  0
M  END
>  <MODEL>
1

>  <REMARK>
 VINA RESULT:    -6.390      0.000      0.000
 INTER + INTRA:         -11.048
 INTER:                  -9.962
 INTRA:                  -1.087
 UNBOUND:                -0.735
  Name = CHEMBL24056
  13 active torsions:
  status: ('A' for Active; 'I' for Inactive)
    1  A    between atoms: C_1  and  C_2
    2  A    between atoms: C_2  and  C_3
    3  A    between atoms: C_3  and  C_4
    4  A    between atoms: C_4  and  C_5
    5  A    between atoms: C_5  and  C_6
    6  A    between atoms: C_6  and  C_7
    7  A    between atoms: C_8  and  C_9
    8  A    between atoms: C_9  and  C_11
    9  A    between atoms: C_11  and  C_12
   10  A    between atoms: C_12  and  C_13
   11  A    between atoms: C_16  and  O_17
   12  A    between atoms: C_18  and  O_19
   13  A    between atoms: O_19  and  C_20
                            x       y       z     vdW  Elec       q    Type
                         _______ _______ _______ _____ _____    ______ ____

>  <TORSDO>
F 11

>  <SCORE>
-6.390

>  <RMSD_LB>
0.000

>  <RMSD_UB>
0.000

$$$$
CHEMBL24056
 OpenBabel10162523553D

 22 22  0  0  0  0  0  0  0  0999 V2000
  145.9380  142.3590  152.4340 C   0  0  0  0  0  2  0  0  0  0  0  0
  145.7760  142.2370  150.9290 C   0  0  0  0  0  0  0  0  0  0  0  0
  146.4420  142.8870  150.1310 O   0  0  0  0  0  0  0  0  0  0  0  0
  144.1570  140.4280  151.3470 C   0  0  0  0  0  3  0  0  0  0  0  0
  144.7930  141.2130  150.4650 C   0  0  0  0  0  3  0  0  0  0  0  0
  143.1630  139.3790  150.9440 C   0  0  0  0  0  2  0  0  0  0  0  0
  143.6950  137.9780  151.2340 C   0  0  0  0  0  2  0  0  0  0  0  0
  143.0670  137.4020  152.5020 C   0  0  0  0  0  2  0  0  0  0  0  0
  141.5640  137.6750  152.5350 C   0  0  0  0  0  2  0  0  0  0  0  0
  142.1820  139.0110  154.5710 C   0  0  0  0  0  1  0  0  0  0  0  0
  141.1180  138.1450  153.9170 C   0  0  0  0  0  2  0  0  0  0  0  0
  147.1900  141.6380  152.9240 C   0  0  0  0  0  2  0  0  0  0  0  0
  146.9600  140.1790  153.2490 C   0  0  0  0  0  0  0  0  0  0  0  0
  146.1800  139.7990  154.3460 C   0  0  0  0  0  3  0  0  0  0  0  0
  145.9660  138.4470  154.6310 C   0  0  0  0  0  3  0  0  0  0  0  0
  146.5230  137.4570  153.8190 C   0  0  0  0  0  0  0  0  0  0  0  0
  147.2990  137.8090  152.7080 C   0  0  0  0  0  0  0  0  0  0  0  0
  147.5090  139.1730  152.4380 C   0  0  0  0  0  3  0  0  0  0  0  0
  146.2820  136.1500  154.1490 O   0  0  0  0  0  0  0  0  0  0  0  0
  145.7070  135.6310  153.6200 H   0  0  0  0  0  0  0  0  0  0  0  0
  147.9070  136.9780  151.8040 O   0  0  0  0  0  0  0  0  0  0  0  0
  147.1440  136.5480  150.6850 C   0  0  0  0  0  1  0  0  0  0  0  0
  1 12  1  0  0  0  0
  2  1  1  0  0  0  0
  3  2  2  0  0  0  0
  5  2  1  0  0  0  0
  5  4  2  0  0  0  0
  6  7  1  0  0  0  0
  6  4  1  0  0  0  0
  7  8  1  0  0  0  0
  8  9  1  0  0  0  0
  9 11  1  0  0  0  0
 11 10  1  0  0  0  0
 12 13  1  0  0  0  0
 13 14  1  0  0  0  0
 14 15  2  0  0  0  0
 16 19  1  0  0  0  0
 16 15  1  0  0  0  0
 17 16  2  0  0  0  0
 18 17  1  0  0  0  0
 18 13  2  0  0  0  0
 20 19  1  0  0  0  0
 21 17  1  0  0  0  0
 22 21  1  0  0  0  0
M  END
>  <MODEL>
2

>  <REMARK>
 VINA RESULT:    -6.340      2.998      6.492
 INTER + INTRA:         -10.967
 INTER:                  -8.868
 INTRA:                  -2.099
 UNBOUND:                -0.735
  Name = CHEMBL24056
  13 active torsions:
  status: ('A' for Active; 'I' for Inactive)
    1  A    between atoms: C_1  and  C_2
    2  A    between atoms: C_2  and  C_3
    3  A    between atoms: C_3  and  C_4
    4  A    between atoms: C_4  and  C_5
    5  A    between atoms: C_5  and  C_6
    6  A    between atoms: C_6  and  C_7
    7  A    between atoms: C_8  and  C_9
    8  A    between atoms: C_9  and  C_11
    9  A    between atoms: C_11  and  C_12
   10  A    between atoms: C_12  and  C_13
   11  A    between atoms: C_16  and  O_17
   12  A    between atoms: C_18  and  O_19
   13  A    between atoms: O_19  and  C_20
                            x       y       z     vdW  Elec       q    Type
                         _______ _______ _______ _____ _____    ______ ____

>  <TORSDO>
F 11

>  <SCORE>
-6.340

>  <RMSD_LB>
2.998

>  <RMSD_UB>
6.492

$$$$
CHEMBL24056
 OpenBabel10162523553D

 22 22  0  0  0  0  0  0  0  0999 V2000
  132.8130  133.7380  150.0850 C   0  0  0  0  0  2  0  0  0  0  0  0
  132.9640  133.4320  148.6050 C   0  0  0  0  0  0  0  0  0  0  0  0
  132.0430  133.5470  147.8030 O   0  0  0  0  0  0  0  0  0  0  0  0
  134.8690  133.5730  147.0520 C   0  0  0  0  0  3  0  0  0  0  0  0
  134.3360  133.0430  148.1610 C   0  0  0  0  0  3  0  0  0  0  0  0
  136.2390  133.2210  146.5510 C   0  0  0  0  0  2  0  0  0  0  0  0
  136.4110  131.7080  146.4410 C   0  0  0  0  0  2  0  0  0  0  0  0
  136.3280  131.2480  144.9870 C   0  0  0  0  0  2  0  0  0  0  0  0
  136.7010  132.3850  144.0370 C   0  0  0  0  0  2  0  0  0  0  0  0
  137.9870  132.9470  141.9530 C   0  0  0  0  0  1  0  0  0  0  0  0
  137.2910  131.8460  142.7360 C   0  0  0  0  0  2  0  0  0  0  0  0
  133.9600  133.1490  150.9000 C   0  0  0  0  0  2  0  0  0  0  0  0
  134.6480  134.1560  151.7940 C   0  0  0  0  0  0  0  0  0  0  0  0
  134.4080  134.1800  153.1720 C   0  0  0  0  0  3  0  0  0  0  0  0
  135.0580  135.1090  153.9890 C   0  0  0  0  0  3  0  0  0  0  0  0
  135.9610  136.0220  153.4430 C   0  0  0  0  0  0  0  0  0  0  0  0
  136.2290  136.0140  152.0690 C   0  0  0  0  0  0  0  0  0  0  0  0
  135.5640  135.0770  151.2590 C   0  0  0  0  0  3  0  0  0  0  0  0
  136.5650  136.9100  154.2930 O   0  0  0  0  0  0  0  0  0  0  0  0
  136.0510  137.5490  154.7460 H   0  0  0  0  0  0  0  0  0  0  0  0
  137.0880  136.8210  151.3700 O   0  0  0  0  0  0  0  0  0  0  0  0
  136.7810  137.0910  150.0100 C   0  0  0  0  0  1  0  0  0  0  0  0
  1 12  1  0  0  0  0
  2  1  1  0  0  0  0
  3  2  2  0  0  0  0
  4  5  2  0  0  0  0
  5  2  1  0  0  0  0
  6  4  1  0  0  0  0
  7  6  1  0  0  0  0
  8  7  1  0  0  0  0
  9  8  1  0  0  0  0
 10 11  1  0  0  0  0
 11  9  1  0  0  0  0
 12 13  1  0  0  0  0
 13 14  1  0  0  0  0
 14 15  2  0  0  0  0
 16 15  1  0  0  0  0
 16 19  1  0  0  0  0
 17 16  2  0  0  0  0
 18 13  2  0  0  0  0
 18 17  1  0  0  0  0
 19 20  1  0  0  0  0
 21 17  1  0  0  0  0
 22 21  1  0  0  0  0
M  END
>  <MODEL>
3

>  <REMARK>
 VINA RESULT:    -6.305      7.786     11.101
 INTER + INTRA:         -10.911
 INTER:                  -9.981
 INTRA:                  -0.930
 UNBOUND:                -0.735
  Name = CHEMBL24056
  13 active torsions:
  status: ('A' for Active; 'I' for Inactive)
    1  A    between atoms: C_1  and  C_2
    2  A    between atoms: C_2  and  C_3
    3  A    between atoms: C_3  and  C_4
    4  A    between atoms: C_4  and  C_5
    5  A    between atoms: C_5  and  C_6
    6  A    between atoms: C_6  and  C_7
    7  A    between atoms: C_8  and  C_9
    8  A    between atoms: C_9  and  C_11
    9  A    between atoms: C_11  and  C_12
   10  A    between atoms: C_12  and  C_13
   11  A    between atoms: C_16  and  O_17
   12  A    between atoms: C_18  and  O_19
   13  A    between atoms: O_19  and  C_20
                            x       y       z     vdW  Elec       q    Type
                         _______ _______ _______ _____ _____    ______ ____

>  <TORSDO>
F 11

>  <SCORE>
-6.305

>  <RMSD_LB>
7.786

>  <RMSD_UB>
11.101

$$$$
CHEMBL24056
 OpenBabel10162523553D

 22 22  0  0  0  0  0  0  0  0999 V2000
  146.7220  142.2690  149.2780 C   0  0  0  0  0  2  0  0  0  0  0  0
  146.3930  141.4920  148.0150 C   0  0  0  0  0  0  0  0  0  0  0  0
  146.6130  141.9250  146.8880 O   0  0  0  0  0  0  0  0  0  0  0  0
  146.6610  139.0710  148.3800 C   0  0  0  0  0  3  0  0  0  0  0  0
  145.8410  140.1200  148.2240 C   0  0  0  0  0  3  0  0  0  0  0  0
  146.1690  137.6700  148.5880 C   0  0  0  0  0  2  0  0  0  0  0  0
  146.4390  137.1990  150.0150 C   0  0  0  0  0  2  0  0  0  0  0  0
  145.1550  137.1900  150.8450 C   0  0  0  0  0  2  0  0  0  0  0  0
  144.0980  136.2990  150.1970 C   0  0  0  0  0  2  0  0  0  0  0  0
  142.2740  137.2860  151.6140 C   0  0  0  0  0  1  0  0  0  0  0  0
  142.7300  136.9740  150.1980 C   0  0  0  0  0  2  0  0  0  0  0  0
  145.8210  141.8600  150.4390 C   0  0  0  0  0  2  0  0  0  0  0  0
  146.5790  141.4990  151.6960 C   0  0  0  0  0  0  0  0  0  0  0  0
  146.5070  142.3040  152.8380 C   0  0  0  0  0  3  0  0  0  0  0  0
  147.2050  141.9540  153.9980 C   0  0  0  0  0  3  0  0  0  0  0  0
  147.9780  140.7920  154.0350 C   0  0  0  0  0  0  0  0  0  0  0  0
  148.0590  139.9620  152.9100 C   0  0  0  0  0  0  0  0  0  0  0  0
  147.3560  140.3300  151.7500 C   0  0  0  0  0  3  0  0  0  0  0  0
  148.6410  140.5020  155.1980 O   0  0  0  0  0  0  0  0  0  0  0  0
  148.2200  140.6380  156.0240 H   0  0  0  0  0  0  0  0  0  0  0  0
  148.7540  138.7890  152.7750 O   0  0  0  0  0  0  0  0  0  0  0  0
  148.1490  137.6020  153.2690 C   0  0  0  0  0  1  0  0  0  0  0  0
  1 12  1  0  0  0  0
  2  5  1  0  0  0  0
  2  1  1  0  0  0  0
  3  2  2  0  0  0  0
  4  6  1  0  0  0  0
  5  4  2  0  0  0  0
  6  7  1  0  0  0  0
  7  8  1  0  0  0  0
  9 11  1  0  0  0  0
  9  8  1  0  0  0  0
 11 10  1  0  0  0  0
 12 13  1  0  0  0  0
 13 18  2  0  0  0  0
 13 14  1  0  0  0  0
 14 15  2  0  0  0  0
 15 16  1  0  0  0  0
 16 19  1  0  0  0  0
 17 16  2  0  0  0  0
 18 17  1  0  0  0  0
 19 20  1  0  0  0  0
 21 17  1  0  0  0  0
 21 22  1  0  0  0  0
M  END
>  <MODEL>
4

>  <REMARK>
 VINA RESULT:    -6.207      3.814      6.807
 INTER + INTRA:         -10.752
 INTER:                  -9.200
 INTRA:                  -1.552
 UNBOUND:                -0.735
  Name = CHEMBL24056
  13 active torsions:
  status: ('A' for Active; 'I' for Inactive)
    1  A    between atoms: C_1  and  C_2
    2  A    between atoms: C_2  and  C_3
    3  A    between atoms: C_3  and  C_4
    4  A    between atoms: C_4  and  C_5
    5  A    between atoms: C_5  and  C_6
    6  A    between atoms: C_6  and  C_7
    7  A    between atoms: C_8  and  C_9
    8  A    between atoms: C_9  and  C_11
    9  A    between atoms: C_11  and  C_12
   10  A    between atoms: C_12  and  C_13
   11  A    between atoms: C_16  and  O_17
   12  A    between atoms: C_18  and  O_19
   13  A    between atoms: O_19  and  C_20
                            x       y       z     vdW  Elec       q    Type
                         _______ _______ _______ _____ _____    ______ ____

>  <TORSDO>
F 11

>  <SCORE>
-6.207

>  <RMSD_LB>
3.814

>  <RMSD_UB>
6.807

$$$$
CHEMBL24056
 OpenBabel10162523553D

 22 22  0  0  0  0  0  0  0  0999 V2000
  137.4310  137.6130  149.6890 C   0  0  0  0  0  2  0  0  0  0  0  0
  136.6390  136.8150  148.6680 C   0  0  0  0  0  0  0  0  0  0  0  0
  137.0730  136.5400  147.5540 O   0  0  0  0  0  0  0  0  0  0  0  0
  134.1890  136.9890  148.8350 C   0  0  0  0  0  3  0  0  0  0  0  0
  135.3100  136.3150  149.1280 C   0  0  0  0  0  3  0  0  0  0  0  0
  132.8250  136.5420  149.2710 C   0  0  0  0  0  2  0  0  0  0  0  0
  132.8740  135.8960  150.6530 C   0  0  0  0  0  2  0  0  0  0  0  0
  132.4910  134.4180  150.5840 C   0  0  0  0  0  2  0  0  0  0  0  0
  133.6710  133.5330  150.9800 C   0  0  0  0  0  2  0  0  0  0  0  0
  135.8410  134.1440  152.0880 C   0  0  0  0  0  1  0  0  0  0  0  0
  134.3350  134.0360  152.2590 C   0  0  0  0  0  2  0  0  0  0  0  0
  138.1180  136.7020  150.7030 C   0  0  0  0  0  2  0  0  0  0  0  0
  138.8000  137.4510  151.8260 C   0  0  0  0  0  0  0  0  0  0  0  0
  140.1590  137.7750  151.7550 C   0  0  0  0  0  3  0  0  0  0  0  0
  140.7750  138.4770  152.7960 C   0  0  0  0  0  3  0  0  0  0  0  0
  140.0410  138.8700  153.9160 C   0  0  0  0  0  0  0  0  0  0  0  0
  138.6780  138.5690  154.0080 C   0  0  0  0  0  0  0  0  0  0  0  0
  138.0730  137.8580  152.9560 C   0  0  0  0  0  3  0  0  0  0  0  0
  140.7010  139.5530  154.9040 O   0  0  0  0  0  0  0  0  0  0  0  0
  141.0060  140.4250  154.7480 H   0  0  0  0  0  0  0  0  0  0  0  0
  137.8090  138.8860  155.0190 O   0  0  0  0  0  0  0  0  0  0  0  0
  137.7020  137.9780  156.1070 C   0  0  0  0  0  1  0  0  0  0  0  0
  1 12  1  0  0  0  0
  2  5  1  0  0  0  0
  2  1  1  0  0  0  0
  3  2  2  0  0  0  0
  4  5  2  0  0  0  0
  4  6  1  0  0  0  0
  6  7  1  0  0  0  0
  8  7  1  0  0  0  0
  8  9  1  0  0  0  0
  9 11  1  0  0  0  0
 10 11  1  0  0  0  0
 12 13  1  0  0  0  0
 13 18  1  0  0  0  0
 14 13  2  0  0  0  0
 14 15  1  0  0  0  0
 15 16  2  0  0  0  0
 16 17  1  0  0  0  0
 16 19  1  0  0  0  0
 17 21  1  0  0  0  0
 18 17  2  0  0  0  0
 20 19  1  0  0  0  0
 21 22  1  0  0  0  0
M  END
>  <MODEL>
5

>  <REMARK>
 VINA RESULT:    -6.083      4.631      9.247
 INTER + INTRA:         -10.551
 INTER:                  -9.269
 INTRA:                  -1.282
 UNBOUND:                -0.735
  Name = CHEMBL24056
  13 active torsions:
  status: ('A' for Active; 'I' for Inactive)
    1  A    between atoms: C_1  and  C_2
    2  A    between atoms: C_2  and  C_3
    3  A    between atoms: C_3  and  C_4
    4  A    between atoms: C_4  and  C_5
    5  A    between atoms: C_5  and  C_6
    6  A    between atoms: C_6  and  C_7
    7  A    between atoms: C_8  and  C_9
    8  A    between atoms: C_9  and  C_11
    9  A    between atoms: C_11  and  C_12
   10  A    between atoms: C_12  and  C_13
   11  A    between atoms: C_16  and  O_17
   12  A    between atoms: C_18  and  O_19
   13  A    between atoms: O_19  and  C_20
                            x       y       z     vdW  Elec       q    Type
                         _______ _______ _______ _____ _____    ______ ____

>  <TORSDO>
F 11

>  <SCORE>
-6.083

>  <RMSD_LB>
4.631

>  <RMSD_UB>
9.247

$$$$
CHEMBL24056
 OpenBabel10162523553D

 22 22  0  0  0  0  0  0  0  0999 V2000
  143.2830  136.1730  149.7900 C   0  0  0  0  0  2  0  0  0  0  0  0
  144.1540  136.9880  148.8500 C   0  0  0  0  0  0  0  0  0  0  0  0
  144.8780  136.4780  148.0010 O   0  0  0  0  0  0  0  0  0  0  0  0
  144.8700  139.1670  149.7470 C   0  0  0  0  0  3  0  0  0  0  0  0
  144.0270  138.4710  148.9710 C   0  0  0  0  0  3  0  0  0  0  0  0
  144.7910  140.6560  149.9140 C   0  0  0  0  0  2  0  0  0  0  0  0
  146.0410  141.3370  149.3630 C   0  0  0  0  0  2  0  0  0  0  0  0
  146.8160  142.0470  150.4720 C   0  0  0  0  0  2  0  0  0  0  0  0
  145.8710  142.5200  151.5750 C   0  0  0  0  0  2  0  0  0  0  0  0
  147.9370  141.9430  152.8820 C   0  0  0  0  0  1  0  0  0  0  0  0
  146.4460  142.2280  152.9580 C   0  0  0  0  0  2  0  0  0  0  0  0
  141.9990  136.9140  150.1480 C   0  0  0  0  0  2  0  0  0  0  0  0
  141.9270  137.3370  151.5980 C   0  0  0  0  0  0  0  0  0  0  0  0
  140.7050  137.6670  152.1930 C   0  0  0  0  0  3  0  0  0  0  0  0
  140.6500  138.0470  153.5370 C   0  0  0  0  0  3  0  0  0  0  0  0
  141.8140  138.0960  154.3060 C   0  0  0  0  0  0  0  0  0  0  0  0
  143.0490  137.7600  153.7390 C   0  0  0  0  0  0  0  0  0  0  0  0
  143.0880  137.3850  152.3850 C   0  0  0  0  0  3  0  0  0  0  0  0
  141.6980  138.4780  155.6170 O   0  0  0  0  0  0  0  0  0  0  0  0
  142.3270  138.1850  156.2470 H   0  0  0  0  0  0  0  0  0  0  0  0
  144.2790  137.7410  154.3440 O   0  0  0  0  0  0  0  0  0  0  0  0
  145.2650  136.8710  153.8060 C   0  0  0  0  0  1  0  0  0  0  0  0
  1 12  1  0  0  0  0
  2  5  1  0  0  0  0
  2  1  1  0  0  0  0
  3  2  2  0  0  0  0
  4  6  1  0  0  0  0
  5  4  2  0  0  0  0
  7  6  1  0  0  0  0
  7  8  1  0  0  0  0
  8  9  1  0  0  0  0
  9 11  1  0  0  0  0
 10 11  1  0  0  0  0
 12 13  1  0  0  0  0
 13 14  2  0  0  0  0
 13 18  1  0  0  0  0
 14 15  1  0  0  0  0
 15 16  2  0  0  0  0
 16 19  1  0  0  0  0
 17 16  1  0  0  0  0
 17 21  1  0  0  0  0
 18 17  2  0  0  0  0
 19 20  1  0  0  0  0
 22 21  1  0  0  0  0
M  END
>  <MODEL>
6

>  <REMARK>
 VINA RESULT:    -6.028      1.588      2.293
 INTER + INTRA:         -10.464
 INTER:                  -9.248
 INTRA:                  -1.215
 UNBOUND:                -0.735
  Name = CHEMBL24056
  13 active torsions:
  status: ('A' for Active; 'I' for Inactive)
    1  A    between atoms: C_1  and  C_2
    2  A    between atoms: C_2  and  C_3
    3  A    between atoms: C_3  and  C_4
    4  A    between atoms: C_4  and  C_5
    5  A    between atoms: C_5  and  C_6
    6  A    between atoms: C_6  and  C_7
    7  A    between atoms: C_8  and  C_9
    8  A    between atoms: C_9  and  C_11
    9  A    between atoms: C_11  and  C_12
   10  A    between atoms: C_12  and  C_13
   11  A    between atoms: C_16  and  O_17
   12  A    between atoms: C_18  and  O_19
   13  A    between atoms: O_19  and  C_20
                            x       y       z     vdW  Elec       q    Type
                         _______ _______ _______ _____ _____    ______ ____

>  <TORSDO>
F 11

>  <SCORE>
-6.028

>  <RMSD_LB>
1.588

>  <RMSD_UB>
2.293

$$$$
CHEMBL24056
 OpenBabel10162523553D

 22 22  0  0  0  0  0  0  0  0999 V2000
  146.3320  141.4180  149.0820 C   0  0  0  0  0  2  0  0  0  0  0  0
  145.3610  140.2790  149.3410 C   0  0  0  0  0  0  0  0  0  0  0  0
  144.1620  140.4540  149.5350 O   0  0  0  0  0  0  0  0  0  0  0  0
  145.4960  137.9360  150.0900 C   0  0  0  0  0  3  0  0  0  0  0  0
  145.9430  138.9050  149.2780 C   0  0  0  0  0  3  0  0  0  0  0  0
  146.0420  136.5390  150.0770 C   0  0  0  0  0  2  0  0  0  0  0  0
  147.5180  136.5230  150.4660 C   0  0  0  0  0  2  0  0  0  0  0  0
  148.2320  135.3120  149.8660 C   0  0  0  0  0  2  0  0  0  0  0  0
  148.0950  135.3010  148.3450 C   0  0  0  0  0  2  0  0  0  0  0  0
  148.3900  137.3300  146.8940 C   0  0  0  0  0  1  0  0  0  0  0  0
  149.0980  136.2490  147.6930 C   0  0  0  0  0  2  0  0  0  0  0  0
  146.2790  142.4630  150.1920 C   0  0  0  0  0  2  0  0  0  0  0  0
  146.9410  142.0160  151.4770 C   0  0  0  0  0  0  0  0  0  0  0  0
  148.3230  142.1380  151.6560 C   0  0  0  0  0  3  0  0  0  0  0  0
  148.9210  141.7310  152.8520 C   0  0  0  0  0  3  0  0  0  0  0  0
  148.1470  141.2040  153.8870 C   0  0  0  0  0  0  0  0  0  0  0  0
  146.7600  141.0810  153.7390 C   0  0  0  0  0  0  0  0  0  0  0  0
  146.1740  141.4900  152.5290 C   0  0  0  0  0  3  0  0  0  0  0  0
  148.7900  140.8200  155.0340 O   0  0  0  0  0  0  0  0  0  0  0  0
  148.6850  141.3200  155.8200 H   0  0  0  0  0  0  0  0  0  0  0  0
  145.8530  140.6020  154.6470 O   0  0  0  0  0  0  0  0  0  0  0  0
  145.6440  139.1980  154.6950 C   0  0  0  0  0  1  0  0  0  0  0  0
  1  2  1  0  0  0  0
  1 12  1  0  0  0  0
  2  3  2  0  0  0  0
  5  2  1  0  0  0  0
  5  4  2  0  0  0  0
  6  4  1  0  0  0  0
  6  7  1  0  0  0  0
  8  7  1  0  0  0  0
  9  8  1  0  0  0  0
 10 11  1  0  0  0  0
 11  9  1  0  0  0  0
 12 13  1  0  0  0  0
 13 14  2  0  0  0  0
 13 18  1  0  0  0  0
 14 15  1  0  0  0  0
 15 16  2  0  0  0  0
 16 19  1  0  0  0  0
 17 16  1  0  0  0  0
 17 21  1  0  0  0  0
 18 17  2  0  0  0  0
 19 20  1  0  0  0  0
 21 22  1  0  0  0  0
M  END
>  <MODEL>
7

>  <REMARK>
 VINA RESULT:    -5.800      4.158      6.912
 INTER + INTRA:         -10.096
 INTER:                  -8.750
 INTRA:                  -1.346
 UNBOUND:                -0.735
  Name = CHEMBL24056
  13 active torsions:
  status: ('A' for Active; 'I' for Inactive)
    1  A    between atoms: C_1  and  C_2
    2  A    between atoms: C_2  and  C_3
    3  A    between atoms: C_3  and  C_4
    4  A    between atoms: C_4  and  C_5
    5  A    between atoms: C_5  and  C_6
    6  A    between atoms: C_6  and  C_7
    7  A    between atoms: C_8  and  C_9
    8  A    between atoms: C_9  and  C_11
    9  A    between atoms: C_11  and  C_12
   10  A    between atoms: C_12  and  C_13
   11  A    between atoms: C_16  and  O_17
   12  A    between atoms: C_18  and  O_19
   13  A    between atoms: O_19  and  C_20
                            x       y       z     vdW  Elec       q    Type
                         _______ _______ _______ _____ _____    ______ ____

>  <TORSDO>
F 11

>  <SCORE>
-5.800

>  <RMSD_LB>
4.158

>  <RMSD_UB>
6.912

$$$$
CHEMBL24056
 OpenBabel10162523553D

 22 22  0  0  0  0  0  0  0  0999 V2000
  133.5440  134.0560  151.3380 C   0  0  0  0  0  2  0  0  0  0  0  0
  134.6970  134.3280  152.2880 C   0  0  0  0  0  0  0  0  0  0  0  0
  134.6610  134.0420  153.4810 O   0  0  0  0  0  0  0  0  0  0  0  0
  136.1650  136.2260  151.7320 C   0  0  0  0  0  3  0  0  0  0  0  0
  135.9250  134.9090  151.6670 C   0  0  0  0  0  3  0  0  0  0  0  0
  137.3760  136.8700  151.1250 C   0  0  0  0  0  2  0  0  0  0  0  0
  137.2260  137.0060  149.6120 C   0  0  0  0  0  2  0  0  0  0  0  0
  137.0580  138.4690  149.2040 C   0  0  0  0  0  2  0  0  0  0  0  0
  138.2650  138.9500  148.4010 C   0  0  0  0  0  2  0  0  0  0  0  0
  139.2060  140.7620  149.8620 C   0  0  0  0  0  1  0  0  0  0  0  0
  139.4130  139.3580  149.3190 C   0  0  0  0  0  2  0  0  0  0  0  0
  132.9050  135.3510  150.8460 C   0  0  0  0  0  2  0  0  0  0  0  0
  133.0500  135.5710  149.3570 C   0  0  0  0  0  0  0  0  0  0  0  0
  132.8390  136.8330  148.7910 C   0  0  0  0  0  3  0  0  0  0  0  0
  132.9860  137.0260  147.4140 C   0  0  0  0  0  3  0  0  0  0  0  0
  133.3530  135.9640  146.5860 C   0  0  0  0  0  0  0  0  0  0  0  0
  133.5810  134.6940  147.1270 C   0  0  0  0  0  0  0  0  0  0  0  0
  133.4240  134.5140  148.5130 C   0  0  0  0  0  3  0  0  0  0  0  0
  133.4790  136.2130  145.2450 O   0  0  0  0  0  0  0  0  0  0  0  0
  132.7610  136.0450  144.6670 H   0  0  0  0  0  0  0  0  0  0  0  0
  133.9570  133.5510  146.4710 O   0  0  0  0  0  0  0  0  0  0  0  0
  135.3470  133.3150  146.2970 C   0  0  0  0  0  1  0  0  0  0  0  0
  1  2  1  0  0  0  0
  2  3  2  0  0  0  0
  5  4  2  0  0  0  0
  5  2  1  0  0  0  0
  6  4  1  0  0  0  0
  7  6  1  0  0  0  0
  8  7  1  0  0  0  0
  9  8  1  0  0  0  0
  9 11  1  0  0  0  0
 11 10  1  0  0  0  0
 12  1  1  0  0  0  0
 13 12  1  0  0  0  0
 14 13  1  0  0  0  0
 15 14  2  0  0  0  0
 16 17  2  0  0  0  0
 16 15  1  0  0  0  0
 17 18  1  0  0  0  0
 18 13  2  0  0  0  0
 19 16  1  0  0  0  0
 20 19  1  0  0  0  0
 21 17  1  0  0  0  0
 22 21  1  0  0  0  0
M  END
>  <MODEL>
8

>  <REMARK>
 VINA RESULT:    -5.692      6.438      9.965
 INTER + INTRA:          -9.921
 INTER:                  -8.667
 INTRA:                  -1.254
 UNBOUND:                -0.735
  Name = CHEMBL24056
  13 active torsions:
  status: ('A' for Active; 'I' for Inactive)
    1  A    between atoms: C_1  and  C_2
    2  A    between atoms: C_2  and  C_3
    3  A    between atoms: C_3  and  C_4
    4  A    between atoms: C_4  and  C_5
    5  A    between atoms: C_5  and  C_6
    6  A    between atoms: C_6  and  C_7
    7  A    between atoms: C_8  and  C_9
    8  A    between atoms: C_9  and  C_11
    9  A    between atoms: C_11  and  C_12
   10  A    between atoms: C_12  and  C_13
   11  A    between atoms: C_16  and  O_17
   12  A    between atoms: C_18  and  O_19
   13  A    between atoms: O_19  and  C_20
                            x       y       z     vdW  Elec       q    Type
                         _______ _______ _______ _____ _____    ______ ____

>  <TORSDO>
F 11

>  <SCORE>
-5.692

>  <RMSD_LB>
6.438

>  <RMSD_UB>
9.965

$$$$
CHEMBL24056
 OpenBabel10162523553D

 22 22  0  0  0  0  0  0  0  0999 V2000
  136.3380  132.2380  145.4500 C   0  0  0  0  0  2  0  0  0  0  0  0
  135.0770  132.7610  146.1160 C   0  0  0  0  0  0  0  0  0  0  0  0
  134.0580  133.0370  145.4910 O   0  0  0  0  0  0  0  0  0  0  0  0
  133.9950  132.7980  148.3270 C   0  0  0  0  0  3  0  0  0  0  0  0
  135.1230  132.8560  147.6050 C   0  0  0  0  0  3  0  0  0  0  0  0
  133.9740  132.8920  149.8240 C   0  0  0  0  0  2  0  0  0  0  0  0
  132.8530  133.8120  150.3020 C   0  0  0  0  0  2  0  0  0  0  0  0
  133.4160  135.0570  150.9870 C   0  0  0  0  0  2  0  0  0  0  0  0
  133.5960  134.8160  152.4850 C   0  0  0  0  0  2  0  0  0  0  0  0
  136.0020  135.2630  151.9220 C   0  0  0  0  0  1  0  0  0  0  0  0
  135.0490  134.4960  152.8230 C   0  0  0  0  0  2  0  0  0  0  0  0
  136.0710  131.7870  144.0180 C   0  0  0  0  0  2  0  0  0  0  0  0
  136.7770  132.6270  142.9760 C   0  0  0  0  0  0  0  0  0  0  0  0
  137.6760  132.0500  142.0740 C   0  0  0  0  0  3  0  0  0  0  0  0
  138.3150  132.8350  141.1090 C   0  0  0  0  0  3  0  0  0  0  0  0
  138.0580  134.2050  141.0290 C   0  0  0  0  0  0  0  0  0  0  0  0
  137.1550  134.8060  141.9120 C   0  0  0  0  0  0  0  0  0  0  0  0
  136.5240  134.0050  142.8800 C   0  0  0  0  0  3  0  0  0  0  0  0
  138.7160  134.9220  140.0650 O   0  0  0  0  0  0  0  0  0  0  0  0
  139.0130  134.4970  139.2850 H   0  0  0  0  0  0  0  0  0  0  0  0
  136.7770  136.1220  141.9690 O   0  0  0  0  0  0  0  0  0  0  0  0
  135.5180  136.4730  141.4120 C   0  0  0  0  0  1  0  0  0  0  0  0
  1  2  1  0  0  0  0
  2  5  1  0  0  0  0
  3  2  2  0  0  0  0
  4  6  1  0  0  0  0
  5  4  2  0  0  0  0
  6  7  1  0  0  0  0
  7  8  1  0  0  0  0
  8  9  1  0  0  0  0
  9 11  1  0  0  0  0
 10 11  1  0  0  0  0
 12  1  1  0  0  0  0
 13 12  1  0  0  0  0
 14 13  2  0  0  0  0
 15 14  1  0  0  0  0
 16 15  2  0  0  0  0
 16 17  1  0  0  0  0
 17 21  1  0  0  0  0
 17 18  2  0  0  0  0
 18 13  1  0  0  0  0
 19 16  1  0  0  0  0
 20 19  1  0  0  0  0
 22 21  1  0  0  0  0
M  END
>  <MODEL>
9

>  <REMARK>
 VINA RESULT:    -5.669      9.702     13.173
 INTER + INTRA:          -9.884
 INTER:                  -9.149
 INTRA:                  -0.735
 UNBOUND:                -0.735
  Name = CHEMBL24056
  13 active torsions:
  status: ('A' for Active; 'I' for Inactive)
    1  A    between atoms: C_1  and  C_2
    2  A    between atoms: C_2  and  C_3
    3  A    between atoms: C_3  and  C_4
    4  A    between atoms: C_4  and  C_5
    5  A    between atoms: C_5  and  C_6
    6  A    between atoms: C_6  and  C_7
    7  A    between atoms: C_8  and  C_9
    8  A    between atoms: C_9  and  C_11
    9  A    between atoms: C_11  and  C_12
   10  A    between atoms: C_12  and  C_13
   11  A    between atoms: C_16  and  O_17
   12  A    between atoms: C_18  and  O_19
   13  A    between atoms: O_19  and  C_20
                            x       y       z     vdW  Elec       q    Type
                         _______ _______ _______ _____ _____    ______ ____

>  <TORSDO>
F 11

>  <SCORE>
-5.669

>  <RMSD_LB>
9.702

>  <RMSD_UB>
13.173

$$$$
