CHEMBL5199774
 OpenBabel10172500393D

 24 25  0  0  0  0  0  0  0  0999 V2000
  145.7810  136.2930  150.0090 C   0  0  0  0  0  2  0  0  0  0  0  0
  145.6230  136.8560  148.6120 C   0  0  0  0  0  0  0  0  0  0  0  0
  144.6000  136.6720  147.9520 O   0  0  0  0  0  0  0  0  0  0  0  0
  146.7940  137.6480  148.0650 C   0  0  0  0  0  2  0  0  0  0  0  0
  146.5980  139.1400  148.3060 C   0  0  0  0  0  2  0  0  0  0  0  0
  146.8490  139.5050  149.7410 C   0  0  0  0  0  3  0  0  0  0  0  0
  146.8450  140.7680  150.1980 C   0  0  0  0  0  3  0  0  0  0  0  0
  147.1660  141.1520  151.5810 C   0  0  0  0  0  0  0  0  0  0  0  0
  148.4620  141.0410  152.1040 C   0  0  0  0  0  3  0  0  0  0  0  0
  148.7480  141.4690  153.4020 C   0  0  0  0  0  3  0  0  0  0  0  0
  147.7440  142.0260  154.1890 C   0  0  0  0  0  3  0  0  0  0  0  0
  146.4540  142.1560  153.6770 C   0  0  0  0  0  3  0  0  0  0  0  0
  146.1680  141.7240  152.3790 C   0  0  0  0  0  3  0  0  0  0  0  0
  144.6510  136.7710  150.9160 C   0  0  0  0  0  2  0  0  0  0  0  0
  144.8000  138.7580  154.1720 C   0  0  0  0  0  0  0  0  0  0  0  0
  144.3190  138.1530  153.0050 C   0  0  0  0  0  3  0  0  0  0  0  0
  145.1760  137.4100  152.1760 C   0  0  0  0  0  0  0  0  0  0  0  0
  146.5200  137.2600  152.5340 C   0  0  0  0  0  3  0  0  0  0  0  0
  147.0110  137.8580  153.6930 C   0  0  0  0  0  3  0  0  0  0  0  0
  146.1530  138.6040  154.5010 C   0  0  0  0  0  0  0  0  0  0  0  0
  142.6340  139.4460  154.8940 C   0  0  0  0  0  1  0  0  0  0  0  0
  144.0440  139.5060  155.0370 O   0  0  0  0  0  0  0  0  0  0  0  0
  146.6380  139.2000  155.6350 O   0  0  0  0  0  0  0  0  0  0  0  0
  147.5610  139.2340  155.7900 H   0  0  0  0  0  0  0  0  0  0  0  0
  1 14  1  0  0  0  0
  2  1  1  0  0  0  0
  3  2  2  0  0  0  0
  4  5  1  0  0  0  0
  4  2  1  0  0  0  0
  5  6  1  0  0  0  0
  6  7  2  0  0  0  0
  7  8  1  0  0  0  0
  8  9  2  0  0  0  0
  8 13  1  0  0  0  0
  9 10  1  0  0  0  0
 10 11  2  0  0  0  0
 12 11  1  0  0  0  0
 13 12  2  0  0  0  0
 14 17  1  0  0  0  0
 15 20  1  0  0  0  0
 15 22  1  0  0  0  0
 16 15  2  0  0  0  0
 17 18  2  0  0  0  0
 17 16  1  0  0  0  0
 18 19  1  0  0  0  0
 19 20  2  0  0  0  0
 20 23  1  0  0  0  0
 21 22  1  0  0  0  0
 23 24  1  0  0  0  0
M  END
>  <MODEL>
1

>  <REMARK>
 VINA RESULT:    -7.098      0.000      0.000
 INTER + INTRA:         -11.810
 INTER:                  -9.423
 INTRA:                  -2.387
 UNBOUND:                -1.185
  Name = CHEMBL5199774
  10 active torsions:
  status: ('A' for Active; 'I' for Inactive)
    1  A    between atoms: C_1  and  O_2
    2  A    between atoms: O_2  and  C_3
    3  A    between atoms: C_5  and  C_6
    4  A    between atoms: C_6  and  C_7
    5  A    between atoms: C_7  and  C_8
    6  A    between atoms: C_8  and  C_10
    7  A    between atoms: C_10  and  C_11
    8  A    between atoms: C_11  and  C_12
    9  A    between atoms: C_13  and  C_14
   10  A    between atoms: C_22  and  O_23
                            x       y       z     vdW  Elec       q    Type
                         _______ _______ _______ _____ _____    ______ ____

>  <TORSDO>
F 9

>  <SCORE>
-7.098

>  <RMSD_LB>
0.000

>  <RMSD_UB>
0.000

$$$$
CHEMBL5199774
 OpenBabel10172500393D

 24 25  0  0  0  0  0  0  0  0999 V2000
  143.9900  139.7060  148.3920 C   0  0  0  0  0  2  0  0  0  0  0  0
  144.5220  139.8420  146.9820 C   0  0  0  0  0  0  0  0  0  0  0  0
  143.8030  139.6680  145.9980 O   0  0  0  0  0  0  0  0  0  0  0  0
  145.9900  140.1940  146.8430 C   0  0  0  0  0  2  0  0  0  0  0  0
  146.2940  141.5230  147.5230 C   0  0  0  0  0  2  0  0  0  0  0  0
  146.7250  141.3300  148.9490 C   0  0  0  0  0  3  0  0  0  0  0  0
  146.3840  142.1600  149.9480 C   0  0  0  0  0  3  0  0  0  0  0  0
  146.8590  142.0320  151.3330 C   0  0  0  0  0  0  0  0  0  0  0  0
  148.2140  141.8400  151.6420 C   0  0  0  0  0  3  0  0  0  0  0  0
  148.6430  141.7800  152.9690 C   0  0  0  0  0  3  0  0  0  0  0  0
  147.7250  141.9260  154.0060 C   0  0  0  0  0  3  0  0  0  0  0  0
  146.3770  142.1320  153.7140 C   0  0  0  0  0  3  0  0  0  0  0  0
  145.9480  142.1880  152.3850 C   0  0  0  0  0  3  0  0  0  0  0  0
  144.2660  138.3090  148.9420 C   0  0  0  0  0  2  0  0  0  0  0  0
  145.0520  138.6440  152.6630 C   0  0  0  0  0  0  0  0  0  0  0  0
  144.3520  138.5870  151.4530 C   0  0  0  0  0  3  0  0  0  0  0  0
  145.0280  138.3590  150.2420 C   0  0  0  0  0  0  0  0  0  0  0  0
  146.4140  138.1690  150.2540 C   0  0  0  0  0  3  0  0  0  0  0  0
  147.1230  138.2250  151.4530 C   0  0  0  0  0  3  0  0  0  0  0  0
  146.4410  138.4640  152.6460 C   0  0  0  0  0  0  0  0  0  0  0  0
  143.1050  139.2080  153.9190 C   0  0  0  0  0  1  0  0  0  0  0  0
  144.4820  138.8670  153.8890 O   0  0  0  0  0  0  0  0  0  0  0  0
  147.1390  138.5280  153.8230 O   0  0  0  0  0  0  0  0  0  0  0  0
  146.7070  138.7970  154.6100 H   0  0  0  0  0  0  0  0  0  0  0  0
  1 14  1  0  0  0  0
  2  1  1  0  0  0  0
  3  2  2  0  0  0  0
  4  2  1  0  0  0  0
  4  5  1  0  0  0  0
  5  6  1  0  0  0  0
  6  7  2  0  0  0  0
  7  8  1  0  0  0  0
  8  9  2  0  0  0  0
  8 13  1  0  0  0  0
  9 10  1  0  0  0  0
 10 11  2  0  0  0  0
 12 11  1  0  0  0  0
 13 12  2  0  0  0  0
 14 17  1  0  0  0  0
 15 22  1  0  0  0  0
 16 15  2  0  0  0  0
 17 18  2  0  0  0  0
 17 16  1  0  0  0  0
 18 19  1  0  0  0  0
 19 20  2  0  0  0  0
 20 15  1  0  0  0  0
 20 23  1  0  0  0  0
 22 21  1  0  0  0  0
 23 24  1  0  0  0  0
M  END
>  <MODEL>
2

>  <REMARK>
 VINA RESULT:    -7.033      1.715      2.139
 INTER + INTRA:         -11.713
 INTER:                  -9.290
 INTRA:                  -2.423
 UNBOUND:                -1.185
  Name = CHEMBL5199774
  10 active torsions:
  status: ('A' for Active; 'I' for Inactive)
    1  A    between atoms: C_1  and  O_2
    2  A    between atoms: O_2  and  C_3
    3  A    between atoms: C_5  and  C_6
    4  A    between atoms: C_6  and  C_7
    5  A    between atoms: C_7  and  C_8
    6  A    between atoms: C_8  and  C_10
    7  A    between atoms: C_10  and  C_11
    8  A    between atoms: C_11  and  C_12
    9  A    between atoms: C_13  and  C_14
   10  A    between atoms: C_22  and  O_23
                            x       y       z     vdW  Elec       q    Type
                         _______ _______ _______ _____ _____    ______ ____

>  <TORSDO>
F 9

>  <SCORE>
-7.033

>  <RMSD_LB>
1.715

>  <RMSD_UB>
2.139

$$$$
CHEMBL5199774
 OpenBabel10172500393D

 24 25  0  0  0  0  0  0  0  0999 V2000
  135.0670  134.1920  145.0970 C   0  0  0  0  0  2  0  0  0  0  0  0
  135.4800  132.9650  145.8820 C   0  0  0  0  0  0  0  0  0  0  0  0
  134.7760  132.5030  146.7790 O   0  0  0  0  0  0  0  0  0  0  0  0
  136.8120  132.3430  145.5120 C   0  0  0  0  0  2  0  0  0  0  0  0
  136.6610  131.4120  144.3160 C   0  0  0  0  0  2  0  0  0  0  0  0
  137.3350  131.9670  143.0940 C   0  0  0  0  0  3  0  0  0  0  0  0
  136.7110  132.7310  142.1830 C   0  0  0  0  0  3  0  0  0  0  0  0
  137.3310  133.2190  140.9420 C   0  0  0  0  0  0  0  0  0  0  0  0
  136.7500  134.2320  140.1670 C   0  0  0  0  0  3  0  0  0  0  0  0
  137.3910  134.7160  139.0250 C   0  0  0  0  0  3  0  0  0  0  0  0
  138.6300  134.2010  138.6510 C   0  0  0  0  0  3  0  0  0  0  0  0
  139.2270  133.2040  139.4210 C   0  0  0  0  0  3  0  0  0  0  0  0
  138.5820  132.7180  140.5610 C   0  0  0  0  0  3  0  0  0  0  0  0
  135.6130  135.4600  145.7470 C   0  0  0  0  0  2  0  0  0  0  0  0
  134.1910  136.3390  149.1790 C   0  0  0  0  0  0  0  0  0  0  0  0
  135.0440  135.8660  148.1760 C   0  0  0  0  0  3  0  0  0  0  0  0
  134.6920  135.9810  146.8210 C   0  0  0  0  0  0  0  0  0  0  0  0
  133.4830  136.5950  146.4730 C   0  0  0  0  0  3  0  0  0  0  0  0
  132.6240  137.0690  147.4640 C   0  0  0  0  0  3  0  0  0  0  0  0
  132.9800  136.9360  148.8060 C   0  0  0  0  0  0  0  0  0  0  0  0
  134.4210  134.9790  151.1240 C   0  0  0  0  0  1  0  0  0  0  0  0
  134.4450  136.2640  150.5240 O   0  0  0  0  0  0  0  0  0  0  0  0
  132.1320  137.3940  149.7800 O   0  0  0  0  0  0  0  0  0  0  0  0
  131.3180  137.7940  149.5430 H   0  0  0  0  0  0  0  0  0  0  0  0
  1 14  1  0  0  0  0
  1  2  1  0  0  0  0
  2  3  2  0  0  0  0
  4  2  1  0  0  0  0
  5  4  1  0  0  0  0
  6  5  1  0  0  0  0
  7  6  2  0  0  0  0
  8  7  1  0  0  0  0
  9  8  2  0  0  0  0
 10  9  1  0  0  0  0
 11 10  2  0  0  0  0
 11 12  1  0  0  0  0
 12 13  2  0  0  0  0
 13  8  1  0  0  0  0
 14 17  1  0  0  0  0
 15 22  1  0  0  0  0
 16 15  2  0  0  0  0
 17 16  1  0  0  0  0
 18 17  2  0  0  0  0
 18 19  1  0  0  0  0
 19 20  2  0  0  0  0
 20 15  1  0  0  0  0
 20 23  1  0  0  0  0
 22 21  1  0  0  0  0
 24 23  1  0  0  0  0
M  END
>  <MODEL>
3

>  <REMARK>
 VINA RESULT:    -6.813     12.439     14.355
 INTER + INTRA:         -11.383
 INTER:                 -10.403
 INTRA:                  -0.981
 UNBOUND:                -1.185
  Name = CHEMBL5199774
  10 active torsions:
  status: ('A' for Active; 'I' for Inactive)
    1  A    between atoms: C_1  and  O_2
    2  A    between atoms: O_2  and  C_3
    3  A    between atoms: C_5  and  C_6
    4  A    between atoms: C_6  and  C_7
    5  A    between atoms: C_7  and  C_8
    6  A    between atoms: C_8  and  C_10
    7  A    between atoms: C_10  and  C_11
    8  A    between atoms: C_11  and  C_12
    9  A    between atoms: C_13  and  C_14
   10  A    between atoms: C_22  and  O_23
                            x       y       z     vdW  Elec       q    Type
                         _______ _______ _______ _____ _____    ______ ____

>  <TORSDO>
F 9

>  <SCORE>
-6.813

>  <RMSD_LB>
12.439

>  <RMSD_UB>
14.355

$$$$
CHEMBL5199774
 OpenBabel10172500393D

 24 25  0  0  0  0  0  0  0  0999 V2000
  147.0700  136.2440  149.8720 C   0  0  0  0  0  2  0  0  0  0  0  0
  146.6900  135.2820  148.7660 C   0  0  0  0  0  0  0  0  0  0  0  0
  147.2840  134.2160  148.6020 O   0  0  0  0  0  0  0  0  0  0  0  0
  145.5470  135.7050  147.8650 C   0  0  0  0  0  2  0  0  0  0  0  0
  144.3340  134.8060  148.0710 C   0  0  0  0  0  2  0  0  0  0  0  0
  143.5280  135.2280  149.2650 C   0  0  0  0  0  3  0  0  0  0  0  0
  142.9480  136.4340  149.3820 C   0  0  0  0  0  3  0  0  0  0  0  0
  142.2220  136.8940  150.5750 C   0  0  0  0  0  0  0  0  0  0  0  0
  142.8790  137.1980  151.7760 C   0  0  0  0  0  3  0  0  0  0  0  0
  142.1700  137.6900  152.8740 C   0  0  0  0  0  3  0  0  0  0  0  0
  140.7960  137.8970  152.7800 C   0  0  0  0  0  3  0  0  0  0  0  0
  140.1320  137.6130  151.5880 C   0  0  0  0  0  3  0  0  0  0  0  0
  140.8420  137.1170  150.4910 C   0  0  0  0  0  3  0  0  0  0  0  0
  146.4920  135.7870  151.2080 C   0  0  0  0  0  2  0  0  0  0  0  0
  146.2690  139.3260  152.6230 C   0  0  0  0  0  0  0  0  0  0  0  0
  146.3830  138.2580  151.7250 C   0  0  0  0  0  3  0  0  0  0  0  0
  146.3590  136.9300  152.1820 C   0  0  0  0  0  0  0  0  0  0  0  0
  146.2000  136.6750  153.5490 C   0  0  0  0  0  3  0  0  0  0  0  0
  146.0860  137.7300  154.4530 C   0  0  0  0  0  3  0  0  0  0  0  0
  146.1250  139.0440  153.9880 C   0  0  0  0  0  0  0  0  0  0  0  0
  145.1560  141.1660  151.5910 C   0  0  0  0  0  1  0  0  0  0  0  0
  146.2900  140.6510  152.2730 O   0  0  0  0  0  0  0  0  0  0  0  0
  146.0220  140.0810  154.8770 O   0  0  0  0  0  0  0  0  0  0  0  0
  145.6420  139.9390  155.7210 H   0  0  0  0  0  0  0  0  0  0  0  0
  1 14  1  0  0  0  0
  2  1  1  0  0  0  0
  3  2  2  0  0  0  0
  4  5  1  0  0  0  0
  4  2  1  0  0  0  0
  5  6  1  0  0  0  0
  6  7  2  0  0  0  0
  7  8  1  0  0  0  0
  8  9  1  0  0  0  0
  9 10  2  0  0  0  0
 11 10  1  0  0  0  0
 12 11  2  0  0  0  0
 13  8  2  0  0  0  0
 13 12  1  0  0  0  0
 14 17  1  0  0  0  0
 15 20  1  0  0  0  0
 16 17  1  0  0  0  0
 16 15  2  0  0  0  0
 17 18  2  0  0  0  0
 18 19  1  0  0  0  0
 20 19  2  0  0  0  0
 20 23  1  0  0  0  0
 21 22  1  0  0  0  0
 22 15  1  0  0  0  0
 23 24  1  0  0  0  0
M  END
>  <MODEL>
4

>  <REMARK>
 VINA RESULT:    -6.693      2.343      4.670
 INTER + INTRA:         -11.204
 INTER:                  -9.262
 INTRA:                  -1.942
 UNBOUND:                -1.185
  Name = CHEMBL5199774
  10 active torsions:
  status: ('A' for Active; 'I' for Inactive)
    1  A    between atoms: C_1  and  O_2
    2  A    between atoms: O_2  and  C_3
    3  A    between atoms: C_5  and  C_6
    4  A    between atoms: C_6  and  C_7
    5  A    between atoms: C_7  and  C_8
    6  A    between atoms: C_8  and  C_10
    7  A    between atoms: C_10  and  C_11
    8  A    between atoms: C_11  and  C_12
    9  A    between atoms: C_13  and  C_14
   10  A    between atoms: C_22  and  O_23
                            x       y       z     vdW  Elec       q    Type
                         _______ _______ _______ _____ _____    ______ ____

>  <TORSDO>
F 9

>  <SCORE>
-6.693

>  <RMSD_LB>
2.343

>  <RMSD_UB>
4.670

$$$$
CHEMBL5199774
 OpenBabel10172500393D

 24 25  0  0  0  0  0  0  0  0999 V2000
  142.8640  135.8180  149.6450 C   0  0  0  0  0  2  0  0  0  0  0  0
  144.0810  135.9750  148.7580 C   0  0  0  0  0  0  0  0  0  0  0  0
  143.9830  136.3080  147.5770 O   0  0  0  0  0  0  0  0  0  0  0  0
  145.4250  135.6900  149.3980 C   0  0  0  0  0  2  0  0  0  0  0  0
  146.4450  136.7540  149.0100 C   0  0  0  0  0  2  0  0  0  0  0  0
  146.4690  137.8840  149.9980 C   0  0  0  0  0  3  0  0  0  0  0  0
  145.9000  139.0790  149.7750 C   0  0  0  0  0  3  0  0  0  0  0  0
  145.9800  140.2230  150.6960 C   0  0  0  0  0  0  0  0  0  0  0  0
  145.5280  141.5010  150.3380 C   0  0  0  0  0  3  0  0  0  0  0  0
  145.5630  142.5540  151.2540 C   0  0  0  0  0  3  0  0  0  0  0  0
  146.0360  142.3390  152.5460 C   0  0  0  0  0  3  0  0  0  0  0  0
  146.4740  141.0690  152.9200 C   0  0  0  0  0  3  0  0  0  0  0  0
  146.4430  140.0170  152.0010 C   0  0  0  0  0  3  0  0  0  0  0  0
  142.2440  137.1770  149.9590 C   0  0  0  0  0  2  0  0  0  0  0  0
  140.9490  137.9080  153.4750 C   0  0  0  0  0  0  0  0  0  0  0  0
  140.9880  137.6460  152.1010 C   0  0  0  0  0  3  0  0  0  0  0  0
  142.2120  137.4500  151.4410 C   0  0  0  0  0  0  0  0  0  0  0  0
  143.4040  137.5000  152.1730 C   0  0  0  0  0  3  0  0  0  0  0  0
  143.3790  137.7620  153.5420 C   0  0  0  0  0  3  0  0  0  0  0  0
  142.1570  137.9680  154.1820 C   0  0  0  0  0  0  0  0  0  0  0  0
  139.0730  139.3060  153.9380 C   0  0  0  0  0  1  0  0  0  0  0  0
  139.8070  138.1200  154.2010 O   0  0  0  0  0  0  0  0  0  0  0  0
  142.1330  138.2340  155.5260 O   0  0  0  0  0  0  0  0  0  0  0  0
  142.9230  138.4670  155.9720 H   0  0  0  0  0  0  0  0  0  0  0  0
  1 14  1  0  0  0  0
  2  4  1  0  0  0  0
  2  1  1  0  0  0  0
  3  2  2  0  0  0  0
  5  4  1  0  0  0  0
  5  6  1  0  0  0  0
  7  6  2  0  0  0  0
  7  8  1  0  0  0  0
  8 13  1  0  0  0  0
  9  8  2  0  0  0  0
  9 10  1  0  0  0  0
 10 11  2  0  0  0  0
 11 12  1  0  0  0  0
 13 12  2  0  0  0  0
 14 17  1  0  0  0  0
 15 20  1  0  0  0  0
 15 22  1  0  0  0  0
 16 15  2  0  0  0  0
 17 16  1  0  0  0  0
 17 18  2  0  0  0  0
 18 19  1  0  0  0  0
 19 20  2  0  0  0  0
 20 23  1  0  0  0  0
 21 22  1  0  0  0  0
 23 24  1  0  0  0  0
M  END
>  <MODEL>
5

>  <REMARK>
 VINA RESULT:    -6.414      2.118      3.051
 INTER + INTRA:         -10.787
 INTER:                  -8.885
 INTRA:                  -1.902
 UNBOUND:                -1.185
  Name = CHEMBL5199774
  10 active torsions:
  status: ('A' for Active; 'I' for Inactive)
    1  A    between atoms: C_1  and  O_2
    2  A    between atoms: O_2  and  C_3
    3  A    between atoms: C_5  and  C_6
    4  A    between atoms: C_6  and  C_7
    5  A    between atoms: C_7  and  C_8
    6  A    between atoms: C_8  and  C_10
    7  A    between atoms: C_10  and  C_11
    8  A    between atoms: C_11  and  C_12
    9  A    between atoms: C_13  and  C_14
   10  A    between atoms: C_22  and  O_23
                            x       y       z     vdW  Elec       q    Type
                         _______ _______ _______ _____ _____    ______ ____

>  <TORSDO>
F 9

>  <SCORE>
-6.414

>  <RMSD_LB>
2.118

>  <RMSD_UB>
3.051

$$$$
CHEMBL5199774
 OpenBabel10172500393D

 24 25  0  0  0  0  0  0  0  0999 V2000
  142.4000  137.5880  152.0280 C   0  0  0  0  0  2  0  0  0  0  0  0
  140.9120  137.6330  152.3030 C   0  0  0  0  0  0  0  0  0  0  0  0
  140.0860  137.3020  151.4530 O   0  0  0  0  0  0  0  0  0  0  0  0
  140.4920  138.1190  153.6760 C   0  0  0  0  0  2  0  0  0  0  0  0
  138.9940  138.3930  153.7190 C   0  0  0  0  0  2  0  0  0  0  0  0
  138.3120  137.5750  154.7770 C   0  0  0  0  0  3  0  0  0  0  0  0
  137.0970  137.0230  154.6220 C   0  0  0  0  0  3  0  0  0  0  0  0
  136.3800  136.2860  155.6730 C   0  0  0  0  0  0  0  0  0  0  0  0
  135.2940  135.4460  155.3850 C   0  0  0  0  0  3  0  0  0  0  0  0
  134.6700  134.7130  156.3960 C   0  0  0  0  0  3  0  0  0  0  0  0
  135.1320  134.8000  157.7070 C   0  0  0  0  0  3  0  0  0  0  0  0
  136.2200  135.6190  158.0050 C   0  0  0  0  0  3  0  0  0  0  0  0
  136.8420  136.3550  156.9930 C   0  0  0  0  0  3  0  0  0  0  0  0
  143.1470  138.5660  152.9300 C   0  0  0  0  0  2  0  0  0  0  0  0
  145.4540  141.4740  152.0370 C   0  0  0  0  0  0  0  0  0  0  0  0
  144.7810  140.4870  152.7660 C   0  0  0  0  0  3  0  0  0  0  0  0
  143.8740  139.6200  152.1350 C   0  0  0  0  0  0  0  0  0  0  0  0
  143.6580  139.7350  150.7570 C   0  0  0  0  0  3  0  0  0  0  0  0
  144.3210  140.7150  150.0190 C   0  0  0  0  0  3  0  0  0  0  0  0
  145.2090  141.5780  150.6610 C   0  0  0  0  0  0  0  0  0  0  0  0
  147.6640  141.9020  152.8220 C   0  0  0  0  0  1  0  0  0  0  0  0
  146.3490  142.3670  152.5650 O   0  0  0  0  0  0  0  0  0  0  0  0
  145.8540  142.5460  149.9380 O   0  0  0  0  0  0  0  0  0  0  0  0
  146.3890  142.3080  149.2070 H   0  0  0  0  0  0  0  0  0  0  0  0
  1  2  1  0  0  0  0
  1 14  1  0  0  0  0
  2  4  1  0  0  0  0
  3  2  2  0  0  0  0
  4  5  1  0  0  0  0
  5  6  1  0  0  0  0
  7  6  2  0  0  0  0
  7  8  1  0  0  0  0
  8 13  1  0  0  0  0
  9  8  2  0  0  0  0
  9 10  1  0  0  0  0
 10 11  2  0  0  0  0
 11 12  1  0  0  0  0
 13 12  2  0  0  0  0
 15 22  1  0  0  0  0
 15 16  1  0  0  0  0
 17 16  2  0  0  0  0
 17 14  1  0  0  0  0
 18 17  1  0  0  0  0
 19 20  1  0  0  0  0
 19 18  2  0  0  0  0
 20 15  2  0  0  0  0
 22 21  1  0  0  0  0
 23 20  1  0  0  0  0
 24 23  1  0  0  0  0
M  END
>  <MODEL>
6

>  <REMARK>
 VINA RESULT:    -6.375      5.217      8.927
 INTER + INTRA:         -10.728
 INTER:                  -9.989
 INTRA:                  -0.739
 UNBOUND:                -1.185
  Name = CHEMBL5199774
  10 active torsions:
  status: ('A' for Active; 'I' for Inactive)
    1  A    between atoms: C_1  and  O_2
    2  A    between atoms: O_2  and  C_3
    3  A    between atoms: C_5  and  C_6
    4  A    between atoms: C_6  and  C_7
    5  A    between atoms: C_7  and  C_8
    6  A    between atoms: C_8  and  C_10
    7  A    between atoms: C_10  and  C_11
    8  A    between atoms: C_11  and  C_12
    9  A    between atoms: C_13  and  C_14
   10  A    between atoms: C_22  and  O_23
                            x       y       z     vdW  Elec       q    Type
                         _______ _______ _______ _____ _____    ______ ____

>  <TORSDO>
F 9

>  <SCORE>
-6.375

>  <RMSD_LB>
5.217

>  <RMSD_UB>
8.927

$$$$
CHEMBL5199774
 OpenBabel10172500393D

 24 25  0  0  0  0  0  0  0  0999 V2000
  142.9150  137.3840  151.5560 C   0  0  0  0  0  2  0  0  0  0  0  0
  141.6810  138.2030  151.2420 C   0  0  0  0  0  0  0  0  0  0  0  0
  140.5590  137.6980  151.2130 O   0  0  0  0  0  0  0  0  0  0  0  0
  141.9010  139.6750  150.9540 C   0  0  0  0  0  2  0  0  0  0  0  0
  142.8650  139.8590  149.7890 C   0  0  0  0  0  2  0  0  0  0  0  0
  144.2520  140.1830  150.2640 C   0  0  0  0  0  3  0  0  0  0  0  0
  144.5120  140.8410  151.4060 C   0  0  0  0  0  3  0  0  0  0  0  0
  145.8570  141.2360  151.8490 C   0  0  0  0  0  0  0  0  0  0  0  0
  146.9120  141.4340  150.9460 C   0  0  0  0  0  3  0  0  0  0  0  0
  148.1630  141.8660  151.3910 C   0  0  0  0  0  3  0  0  0  0  0  0
  148.3710  142.1200  152.7440 C   0  0  0  0  0  3  0  0  0  0  0  0
  147.3280  141.9420  153.6520 C   0  0  0  0  0  3  0  0  0  0  0  0
  146.0770  141.5060  153.2060 C   0  0  0  0  0  3  0  0  0  0  0  0
  143.2940  136.4990  150.3720 C   0  0  0  0  0  2  0  0  0  0  0  0
  147.0120  136.5650  151.2350 C   0  0  0  0  0  0  0  0  0  0  0  0
  145.6290  136.7670  151.3000 C   0  0  0  0  0  3  0  0  0  0  0  0
  144.7810  136.2680  150.2980 C   0  0  0  0  0  0  0  0  0  0  0  0
  145.3280  135.5440  149.2320 C   0  0  0  0  0  3  0  0  0  0  0  0
  146.7050  135.3370  149.1550 C   0  0  0  0  0  3  0  0  0  0  0  0
  147.5360  135.8490  150.1500 C   0  0  0  0  0  0  0  0  0  0  0  0
  147.5270  138.1160  152.9720 C   0  0  0  0  0  1  0  0  0  0  0  0
  147.9160  137.0200  152.1590 O   0  0  0  0  0  0  0  0  0  0  0  0
  148.8900  135.6530  150.0700 O   0  0  0  0  0  0  0  0  0  0  0  0
  149.3430  135.2200  150.7660 H   0  0  0  0  0  0  0  0  0  0  0  0
  2  1  1  0  0  0  0
  3  2  2  0  0  0  0
  4  2  1  0  0  0  0
  5  6  1  0  0  0  0
  5  4  1  0  0  0  0
  6  7  2  0  0  0  0
  7  8  1  0  0  0  0
  8 13  1  0  0  0  0
  9 10  1  0  0  0  0
  9  8  2  0  0  0  0
 10 11  2  0  0  0  0
 11 12  1  0  0  0  0
 13 12  2  0  0  0  0
 14  1  1  0  0  0  0
 15 16  1  0  0  0  0
 15 22  1  0  0  0  0
 17 14  1  0  0  0  0
 17 16  2  0  0  0  0
 18 17  1  0  0  0  0
 19 18  2  0  0  0  0
 19 20  1  0  0  0  0
 20 15  2  0  0  0  0
 22 21  1  0  0  0  0
 23 20  1  0  0  0  0
 23 24  1  0  0  0  0
M  END
>  <MODEL>
7

>  <REMARK>
 VINA RESULT:    -6.083      2.482      3.935
 INTER + INTRA:         -10.291
 INTER:                  -8.841
 INTRA:                  -1.450
 UNBOUND:                -1.185
  Name = CHEMBL5199774
  10 active torsions:
  status: ('A' for Active; 'I' for Inactive)
    1  A    between atoms: C_1  and  O_2
    2  A    between atoms: O_2  and  C_3
    3  A    between atoms: C_5  and  C_6
    4  A    between atoms: C_6  and  C_7
    5  A    between atoms: C_7  and  C_8
    6  A    between atoms: C_8  and  C_10
    7  A    between atoms: C_10  and  C_11
    8  A    between atoms: C_11  and  C_12
    9  A    between atoms: C_13  and  C_14
   10  A    between atoms: C_22  and  O_23
                            x       y       z     vdW  Elec       q    Type
                         _______ _______ _______ _____ _____    ______ ____

>  <TORSDO>
F 9

>  <SCORE>
-6.083

>  <RMSD_LB>
2.482

>  <RMSD_UB>
3.935

$$$$
CHEMBL5199774
 OpenBabel10172500393D

 24 25  0  0  0  0  0  0  0  0999 V2000
  142.7700  135.8540  149.6810 C   0  0  0  0  0  2  0  0  0  0  0  0
  143.8370  136.1470  148.6480 C   0  0  0  0  0  0  0  0  0  0  0  0
  143.5810  136.7500  147.6060 O   0  0  0  0  0  0  0  0  0  0  0  0
  145.2350  135.6500  148.9600 C   0  0  0  0  0  2  0  0  0  0  0  0
  146.2440  136.7890  148.8830 C   0  0  0  0  0  2  0  0  0  0  0  0
  146.3690  137.5060  150.1960 C   0  0  0  0  0  3  0  0  0  0  0  0
  146.9980  136.9940  151.2660 C   0  0  0  0  0  3  0  0  0  0  0  0
  147.0640  137.6470  152.5820 C   0  0  0  0  0  0  0  0  0  0  0  0
  146.9500  136.9240  153.7790 C   0  0  0  0  0  3  0  0  0  0  0  0
  147.0750  137.5620  155.0140 C   0  0  0  0  0  3  0  0  0  0  0  0
  147.3300  138.9300  155.0690 C   0  0  0  0  0  3  0  0  0  0  0  0
  147.4610  139.6590  153.8880 C   0  0  0  0  0  3  0  0  0  0  0  0
  147.3310  139.0190  152.6510 C   0  0  0  0  0  3  0  0  0  0  0  0
  141.9820  137.1160  150.0190 C   0  0  0  0  0  2  0  0  0  0  0  0
  140.9270  137.9770  153.5850 C   0  0  0  0  0  0  0  0  0  0  0  0
  140.8730  137.6640  152.2230 C   0  0  0  0  0  3  0  0  0  0  0  0
  142.0500  137.4440  151.4880 C   0  0  0  0  0  0  0  0  0  0  0  0
  143.2890  137.5210  152.1350 C   0  0  0  0  0  3  0  0  0  0  0  0
  143.3570  137.8340  153.4920 C   0  0  0  0  0  3  0  0  0  0  0  0
  142.1810  138.0630  154.2060 C   0  0  0  0  0  0  0  0  0  0  0  0
  138.8530  139.1120  153.8900 C   0  0  0  0  0  1  0  0  0  0  0  0
  139.8370  138.2150  154.3800 O   0  0  0  0  0  0  0  0  0  0  0  0
  142.2480  138.3780  155.5370 O   0  0  0  0  0  0  0  0  0  0  0  0
  141.5180  138.7870  155.9600 H   0  0  0  0  0  0  0  0  0  0  0  0
  1 14  1  0  0  0  0
  2  4  1  0  0  0  0
  2  1  1  0  0  0  0
  3  2  2  0  0  0  0
  5  4  1  0  0  0  0
  5  6  1  0  0  0  0
  6  7  2  0  0  0  0
  7  8  1  0  0  0  0
  8 13  2  0  0  0  0
  8  9  1  0  0  0  0
  9 10  2  0  0  0  0
 10 11  1  0  0  0  0
 12 11  2  0  0  0  0
 13 12  1  0  0  0  0
 14 17  1  0  0  0  0
 15 20  1  0  0  0  0
 15 22  1  0  0  0  0
 16 15  2  0  0  0  0
 17 18  2  0  0  0  0
 17 16  1  0  0  0  0
 18 19  1  0  0  0  0
 19 20  2  0  0  0  0
 20 23  1  0  0  0  0
 21 22  1  0  0  0  0
 23 24  1  0  0  0  0
M  END
>  <MODEL>
8

>  <REMARK>
 VINA RESULT:    -6.013      2.173      3.440
 INTER + INTRA:         -10.186
 INTER:                  -8.284
 INTRA:                  -1.902
 UNBOUND:                -1.185
  Name = CHEMBL5199774
  10 active torsions:
  status: ('A' for Active; 'I' for Inactive)
    1  A    between atoms: C_1  and  O_2
    2  A    between atoms: O_2  and  C_3
    3  A    between atoms: C_5  and  C_6
    4  A    between atoms: C_6  and  C_7
    5  A    between atoms: C_7  and  C_8
    6  A    between atoms: C_8  and  C_10
    7  A    between atoms: C_10  and  C_11
    8  A    between atoms: C_11  and  C_12
    9  A    between atoms: C_13  and  C_14
   10  A    between atoms: C_22  and  O_23
                            x       y       z     vdW  Elec       q    Type
                         _______ _______ _______ _____ _____    ______ ____

>  <TORSDO>
F 9

>  <SCORE>
-6.013

>  <RMSD_LB>
2.173

>  <RMSD_UB>
3.440

$$$$
CHEMBL5199774
 OpenBabel10172500393D

 24 25  0  0  0  0  0  0  0  0999 V2000
  142.9840  136.9630  149.2880 C   0  0  0  0  0  2  0  0  0  0  0  0
  141.9300  137.1570  150.3580 C   0  0  0  0  0  0  0  0  0  0  0  0
  140.7520  136.8530  150.1690 O   0  0  0  0  0  0  0  0  0  0  0  0
  142.3990  137.7550  151.6690 C   0  0  0  0  0  2  0  0  0  0  0  0
  142.5320  139.2690  151.5560 C   0  0  0  0  0  2  0  0  0  0  0  0
  143.8540  139.7490  152.0830 C   0  0  0  0  0  3  0  0  0  0  0  0
  144.6190  140.6570  151.4550 C   0  0  0  0  0  3  0  0  0  0  0  0
  145.9500  141.0810  151.9140 C   0  0  0  0  0  0  0  0  0  0  0  0
  147.0150  141.2830  151.0240 C   0  0  0  0  0  3  0  0  0  0  0  0
  148.2510  141.7430  151.4820 C   0  0  0  0  0  3  0  0  0  0  0  0
  148.4350  142.0200  152.8340 C   0  0  0  0  0  3  0  0  0  0  0  0
  147.3800  141.8380  153.7280 C   0  0  0  0  0  3  0  0  0  0  0  0
  146.1440  141.3740  153.2690 C   0  0  0  0  0  3  0  0  0  0  0  0
  143.5570  135.5490  149.3430 C   0  0  0  0  0  2  0  0  0  0  0  0
  147.2980  135.0490  148.7730 C   0  0  0  0  0  0  0  0  0  0  0  0
  145.9130  135.0550  148.5750 C   0  0  0  0  0  3  0  0  0  0  0  0
  145.0480  135.5560  149.5620 C   0  0  0  0  0  0  0  0  0  0  0  0
  145.5830  136.0720  150.7480 C   0  0  0  0  0  3  0  0  0  0  0  0
  146.9610  136.0710  150.9580 C   0  0  0  0  0  3  0  0  0  0  0  0
  147.8070  135.5580  149.9750 C   0  0  0  0  0  0  0  0  0  0  0  0
  148.1830  133.1890  147.5710 C   0  0  0  0  0  1  0  0  0  0  0  0
  148.2180  134.5750  147.8740 O   0  0  0  0  0  0  0  0  0  0  0  0
  149.1610  135.5490  150.1850 O   0  0  0  0  0  0  0  0  0  0  0  0
  149.7110  134.9850  149.6780 H   0  0  0  0  0  0  0  0  0  0  0  0
  1 14  1  0  0  0  0
  1  2  1  0  0  0  0
  2  4  1  0  0  0  0
  3  2  2  0  0  0  0
  5  4  1  0  0  0  0
  5  6  1  0  0  0  0
  7  8  1  0  0  0  0
  7  6  2  0  0  0  0
  8 13  1  0  0  0  0
  9 10  1  0  0  0  0
  9  8  2  0  0  0  0
 10 11  2  0  0  0  0
 11 12  1  0  0  0  0
 13 12  2  0  0  0  0
 14 17  1  0  0  0  0
 15 20  1  0  0  0  0
 16 15  2  0  0  0  0
 16 17  1  0  0  0  0
 17 18  2  0  0  0  0
 18 19  1  0  0  0  0
 20 23  1  0  0  0  0
 20 19  2  0  0  0  0
 21 22  1  0  0  0  0
 22 15  1  0  0  0  0
 24 23  1  0  0  0  0
M  END
>  <MODEL>
9

>  <REMARK>
 VINA RESULT:    -5.836      2.875      4.890
 INTER + INTRA:          -9.921
 INTER:                  -8.736
 INTRA:                  -1.185
 UNBOUND:                -1.185
  Name = CHEMBL5199774
  10 active torsions:
  status: ('A' for Active; 'I' for Inactive)
    1  A    between atoms: C_1  and  O_2
    2  A    between atoms: O_2  and  C_3
    3  A    between atoms: C_5  and  C_6
    4  A    between atoms: C_6  and  C_7
    5  A    between atoms: C_7  and  C_8
    6  A    between atoms: C_8  and  C_10
    7  A    between atoms: C_10  and  C_11
    8  A    between atoms: C_11  and  C_12
    9  A    between atoms: C_13  and  C_14
   10  A    between atoms: C_22  and  O_23
                            x       y       z     vdW  Elec       q    Type
                         _______ _______ _______ _____ _____    ______ ____

>  <TORSDO>
F 9

>  <SCORE>
-5.836

>  <RMSD_LB>
2.875

>  <RMSD_UB>
4.890

$$$$
