CHEMBL190554
 OpenBabel10172500483D

 24 24  0  0  0  0  0  0  0  0999 V2000
  146.8210  139.6640  154.3790 C   0  0  0  0  0  0  0  0  0  0  0  0
  145.7340  140.2440  154.4350 O   0  0  0  0  0  0  0  0  0  0  0  0
  146.9380  138.3010  154.2660 N   0  0  0  0  0  0  0  0  0  0  0  0
  147.8300  137.8900  154.2110 H   0  0  0  0  0  0  0  0  0  0  0  0
  148.1290  140.4220  154.3890 C   0  0  0  0  0  2  0  0  0  0  0  0
  148.0020  141.7840  153.7110 C   0  0  0  0  0  2  0  0  0  0  0  0
  148.8880  141.8980  152.4690 C   0  0  0  0  0  2  0  0  0  0  0  0
  148.0350  142.1140  151.2220 C   0  0  0  0  0  2  0  0  0  0  0  0
  146.5570  142.2200  151.5860 C   0  0  0  0  0  2  0  0  0  0  0  0
  145.7290  141.2070  150.8010 C   0  0  0  0  0  2  0  0  0  0  0  0
  146.4300  139.3620  149.2520 C   0  0  0  0  0  1  0  0  0  0  0  0
  146.4610  139.8730  150.6830 C   0  0  0  0  0  2  0  0  0  0  0  0
  145.7560  137.4610  154.2270 C   0  0  0  0  0  2  0  0  0  0  0  0
  145.3890  137.0220  152.8280 C   0  0  0  0  0  0  0  0  0  0  0  0
  146.3180  136.2850  152.0530 C   0  0  0  0  0  3  0  0  0  0  0  0
  146.0380  135.8440  150.7390 C   0  0  0  0  0  0  0  0  0  0  0  0
  144.7850  136.1570  150.1990 C   0  0  0  0  0  0  0  0  0  0  0  0
  143.8740  136.9040  150.9450 C   0  0  0  0  0  3  0  0  0  0  0  0
  144.1660  137.3420  152.2350 C   0  0  0  0  0  0  0  0  0  0  0  0
  142.8390  138.3950  153.0970 Br  0  0  0  0  0  0  0  0  0  0  0  0
  147.0800  135.1520  150.1860 O   0  0  0  0  0  0  0  0  0  0  0  0
  148.2150  135.8440  149.6980 C   0  0  0  0  0  1  0  0  0  0  0  0
  144.2850  135.8200  148.9780 O   0  0  0  0  0  0  0  0  0  0  0  0
  143.3880  135.5680  148.8930 H   0  0  0  0  0  0  0  0  0  0  0  0
  1  5  1  0  0  0  0
  1  2  2  0  0  0  0
  3  1  1  0  0  0  0
  4  3  1  0  0  0  0
  6  5  1  0  0  0  0
  7  6  1  0  0  0  0
  8  9  1  0  0  0  0
  8  7  1  0  0  0  0
 10  9  1  0  0  0  0
 11 12  1  0  0  0  0
 12 10  1  0  0  0  0
 13  3  1  0  0  0  0
 14 13  1  0  0  0  0
 15 14  2  0  0  0  0
 16 15  1  0  0  0  0
 17 16  2  0  0  0  0
 17 18  1  0  0  0  0
 18 19  2  0  0  0  0
 19 14  1  0  0  0  0
 19 20  1  0  0  0  0
 21 16  1  0  0  0  0
 22 21  1  0  0  0  0
 23 17  1  0  0  0  0
 24 23  1  0  0  0  0
M  END
>  <MODEL>
1

>  <REMARK>
 VINA RESULT:    -6.235      0.000      0.000
 INTER + INTRA:         -10.966
 INTER:                  -8.913
 INTRA:                  -2.052
 UNBOUND:                -0.903
  Name = CHEMBL190554
  13 active torsions:
  status: ('A' for Active; 'I' for Inactive)
    1  A    between atoms: C_1  and  C_2
    2  A    between atoms: C_2  and  C_3
    3  A    between atoms: C_3  and  C_4
    4  A    between atoms: C_4  and  C_5
    5  A    between atoms: C_5  and  C_6
    6  A    between atoms: C_6  and  C_7
    7  A    between atoms: C_7  and  C_8
    8  A    between atoms: C_8  and  C_9
    9  A    between atoms: N_11  and  C_12
   10  A    between atoms: C_12  and  C_13
   11  A    between atoms: C_15  and  O_16
   12  A    between atoms: O_16  and  C_17
   13  A    between atoms: C_18  and  O_19
                            x       y       z     vdW  Elec       q    Type
                         _______ _______ _______ _____ _____    ______ ____

>  <TORSDO>
F 11

>  <SCORE>
-6.235

>  <RMSD_LB>
0.000

>  <RMSD_UB>
0.000

$$$$
CHEMBL190554
 OpenBabel10172500483D

 24 24  0  0  0  0  0  0  0  0999 V2000
  144.9760  138.2200  149.9800 C   0  0  0  0  0  0  0  0  0  0  0  0
  145.7960  137.4450  150.4780 O   0  0  0  0  0  0  0  0  0  0  0  0
  143.6210  138.0910  150.1560 N   0  0  0  0  0  0  0  0  0  0  0  0
  143.0100  138.7470  149.7480 H   0  0  0  0  0  0  0  0  0  0  0  0
  145.4070  139.4150  149.1600 C   0  0  0  0  0  2  0  0  0  0  0  0
  146.4000  140.2950  149.9160 C   0  0  0  0  0  2  0  0  0  0  0  0
  146.3370  141.7560  149.4680 C   0  0  0  0  0  2  0  0  0  0  0  0
  145.8990  142.6510  150.6250 C   0  0  0  0  0  2  0  0  0  0  0  0
  145.5220  141.8160  151.8460 C   0  0  0  0  0  2  0  0  0  0  0  0
  146.2910  142.2770  153.0790 C   0  0  0  0  0  2  0  0  0  0  0  0
  148.4110  141.8100  154.3390 C   0  0  0  0  0  1  0  0  0  0  0  0
  147.7730  141.9290  152.9640 C   0  0  0  0  0  2  0  0  0  0  0  0
  143.0800  136.9960  150.9370 C   0  0  0  0  0  2  0  0  0  0  0  0
  142.1860  137.4590  152.0650 C   0  0  0  0  0  0  0  0  0  0  0  0
  140.7950  137.6170  151.8430 C   0  0  0  0  0  3  0  0  0  0  0  0
  139.9040  138.0470  152.8530 C   0  0  0  0  0  0  0  0  0  0  0  0
  140.4360  138.3210  154.1190 C   0  0  0  0  0  0  0  0  0  0  0  0
  141.8070  138.1930  154.3390 C   0  0  0  0  0  3  0  0  0  0  0  0
  142.6770  137.7790  153.3320 C   0  0  0  0  0  0  0  0  0  0  0  0
  144.5220  137.7070  153.7790 Br  0  0  0  0  0  0  0  0  0  0  0  0
  138.6120  138.1250  152.4120 O   0  0  0  0  0  0  0  0  0  0  0  0
  138.1800  137.3250  151.3260 C   0  0  0  0  0  1  0  0  0  0  0  0
  139.7760  138.7180  155.2420 O   0  0  0  0  0  0  0  0  0  0  0  0
  139.2840  138.0960  155.7400 H   0  0  0  0  0  0  0  0  0  0  0  0
  1  3  1  0  0  0  0
  1  2  2  0  0  0  0
  3 13  1  0  0  0  0
  4  3  1  0  0  0  0
  5  6  1  0  0  0  0
  5  1  1  0  0  0  0
  7  6  1  0  0  0  0
  7  8  1  0  0  0  0
  8  9  1  0  0  0  0
  9 10  1  0  0  0  0
 12 10  1  0  0  0  0
 12 11  1  0  0  0  0
 13 14  1  0  0  0  0
 14 19  1  0  0  0  0
 15 14  2  0  0  0  0
 15 16  1  0  0  0  0
 16 17  2  0  0  0  0
 17 18  1  0  0  0  0
 17 23  1  0  0  0  0
 19 20  1  0  0  0  0
 19 18  2  0  0  0  0
 21 16  1  0  0  0  0
 22 21  1  0  0  0  0
 23 24  1  0  0  0  0
M  END
>  <MODEL>
2

>  <REMARK>
 VINA RESULT:    -6.173      3.309      5.386
 INTER + INTRA:         -10.865
 INTER:                  -9.860
 INTRA:                  -1.005
 UNBOUND:                -0.903
  Name = CHEMBL190554
  13 active torsions:
  status: ('A' for Active; 'I' for Inactive)
    1  A    between atoms: C_1  and  C_2
    2  A    between atoms: C_2  and  C_3
    3  A    between atoms: C_3  and  C_4
    4  A    between atoms: C_4  and  C_5
    5  A    between atoms: C_5  and  C_6
    6  A    between atoms: C_6  and  C_7
    7  A    between atoms: C_7  and  C_8
    8  A    between atoms: C_8  and  C_9
    9  A    between atoms: N_11  and  C_12
   10  A    between atoms: C_12  and  C_13
   11  A    between atoms: C_15  and  O_16
   12  A    between atoms: O_16  and  C_17
   13  A    between atoms: C_18  and  O_19
                            x       y       z     vdW  Elec       q    Type
                         _______ _______ _______ _____ _____    ______ ____

>  <TORSDO>
F 11

>  <SCORE>
-6.173

>  <RMSD_LB>
3.309

>  <RMSD_UB>
5.386

$$$$
CHEMBL190554
 OpenBabel10172500483D

 24 24  0  0  0  0  0  0  0  0999 V2000
  145.0850  138.8600  151.1950 C   0  0  0  0  0  0  0  0  0  0  0  0
  145.5500  138.4380  152.2580 O   0  0  0  0  0  0  0  0  0  0  0  0
  143.9990  138.2950  150.5760 N   0  0  0  0  0  0  0  0  0  0  0  0
  143.6600  138.6810  149.7360 H   0  0  0  0  0  0  0  0  0  0  0  0
  145.6580  140.0780  150.5060 C   0  0  0  0  0  2  0  0  0  0  0  0
  145.0110  141.3690  151.0010 C   0  0  0  0  0  2  0  0  0  0  0  0
  146.0360  142.3510  151.5700 C   0  0  0  0  0  2  0  0  0  0  0  0
  146.2980  142.0560  153.0440 C   0  0  0  0  0  2  0  0  0  0  0  0
  147.7950  141.9900  153.3290 C   0  0  0  0  0  2  0  0  0  0  0  0
  148.3500  140.6070  153.0040 C   0  0  0  0  0  2  0  0  0  0  0  0
  148.7960  138.2990  153.8820 C   0  0  0  0  0  1  0  0  0  0  0  0
  148.2120  139.6660  154.1980 C   0  0  0  0  0  2  0  0  0  0  0  0
  143.3480  137.1320  151.1470 C   0  0  0  0  0  2  0  0  0  0  0  0
  142.0060  137.4500  151.7650 C   0  0  0  0  0  0  0  0  0  0  0  0
  141.9350  137.8880  153.1110 C   0  0  0  0  0  3  0  0  0  0  0  0
  140.7120  138.2020  153.7480 C   0  0  0  0  0  0  0  0  0  0  0  0
  139.5340  138.0710  153.0030 C   0  0  0  0  0  0  0  0  0  0  0  0
  139.5930  137.6160  151.6850 C   0  0  0  0  0  3  0  0  0  0  0  0
  140.8030  137.3000  151.0710 C   0  0  0  0  0  0  0  0  0  0  0  0
  140.7070  136.6440  149.2910 Br  0  0  0  0  0  0  0  0  0  0  0  0
  140.8850  138.6020  155.0440 O   0  0  0  0  0  0  0  0  0  0  0  0
  140.5290  137.7400  156.1100 C   0  0  0  0  0  1  0  0  0  0  0  0
  138.2570  138.3380  153.3910 O   0  0  0  0  0  0  0  0  0  0  0  0
  137.9150  137.9530  154.1720 H   0  0  0  0  0  0  0  0  0  0  0  0
  1  2  2  0  0  0  0
  3 13  1  0  0  0  0
  3  1  1  0  0  0  0
  4  3  1  0  0  0  0
  5  6  1  0  0  0  0
  5  1  1  0  0  0  0
  6  7  1  0  0  0  0
  7  8  1  0  0  0  0
  8  9  1  0  0  0  0
 10  9  1  0  0  0  0
 10 12  1  0  0  0  0
 11 12  1  0  0  0  0
 13 14  1  0  0  0  0
 14 15  1  0  0  0  0
 15 16  2  0  0  0  0
 16 21  1  0  0  0  0
 17 23  1  0  0  0  0
 17 16  1  0  0  0  0
 18 17  2  0  0  0  0
 19 18  1  0  0  0  0
 19 14  2  0  0  0  0
 20 19  1  0  0  0  0
 21 22  1  0  0  0  0
 23 24  1  0  0  0  0
M  END
>  <MODEL>
3

>  <REMARK>
 VINA RESULT:    -5.990      3.440      5.156
 INTER + INTRA:         -10.569
 INTER:                  -9.402
 INTRA:                  -1.167
 UNBOUND:                -0.903
  Name = CHEMBL190554
  13 active torsions:
  status: ('A' for Active; 'I' for Inactive)
    1  A    between atoms: C_1  and  C_2
    2  A    between atoms: C_2  and  C_3
    3  A    between atoms: C_3  and  C_4
    4  A    between atoms: C_4  and  C_5
    5  A    between atoms: C_5  and  C_6
    6  A    between atoms: C_6  and  C_7
    7  A    between atoms: C_7  and  C_8
    8  A    between atoms: C_8  and  C_9
    9  A    between atoms: N_11  and  C_12
   10  A    between atoms: C_12  and  C_13
   11  A    between atoms: C_15  and  O_16
   12  A    between atoms: O_16  and  C_17
   13  A    between atoms: C_18  and  O_19
                            x       y       z     vdW  Elec       q    Type
                         _______ _______ _______ _____ _____    ______ ____

>  <TORSDO>
F 11

>  <SCORE>
-5.990

>  <RMSD_LB>
3.440

>  <RMSD_UB>
5.156

$$$$
CHEMBL190554
 OpenBabel10172500483D

 24 24  0  0  0  0  0  0  0  0999 V2000
  147.2900  138.9450  154.4460 C   0  0  0  0  0  0  0  0  0  0  0  0
  147.0950  138.3030  155.4820 O   0  0  0  0  0  0  0  0  0  0  0  0
  147.1140  138.4150  153.1920 N   0  0  0  0  0  0  0  0  0  0  0  0
  147.2690  138.9760  152.3980 H   0  0  0  0  0  0  0  0  0  0  0  0
  147.7030  140.3990  154.4770 C   0  0  0  0  0  2  0  0  0  0  0  0
  147.4390  141.0940  153.1440 C   0  0  0  0  0  2  0  0  0  0  0  0
  146.3650  142.1780  153.2570 C   0  0  0  0  0  2  0  0  0  0  0  0
  145.7340  142.4490  151.8940 C   0  0  0  0  0  2  0  0  0  0  0  0
  146.7640  142.2990  150.7780 C   0  0  0  0  0  2  0  0  0  0  0  0
  146.1960  141.4890  149.6180 C   0  0  0  0  0  2  0  0  0  0  0  0
  144.1430  140.0840  149.2910 C   0  0  0  0  0  1  0  0  0  0  0  0
  145.3970  140.2910  150.1240 C   0  0  0  0  0  2  0  0  0  0  0  0
  146.7010  137.0350  153.0270 C   0  0  0  0  0  2  0  0  0  0  0  0
  145.5150  136.8790  152.1030 C   0  0  0  0  0  0  0  0  0  0  0  0
  144.2310  137.3020  152.5260 C   0  0  0  0  0  3  0  0  0  0  0  0
  143.0810  137.1840  151.7110 C   0  0  0  0  0  0  0  0  0  0  0  0
  143.2380  136.6270  150.4360 C   0  0  0  0  0  0  0  0  0  0  0  0
  144.4950  136.1850  150.0220 C   0  0  0  0  0  3  0  0  0  0  0  0
  145.6180  136.2960  150.8380 C   0  0  0  0  0  0  0  0  0  0  0  0
  147.2440  135.5980  150.1460 Br  0  0  0  0  0  0  0  0  0  0  0  0
  141.9540  137.6570  152.3250 O   0  0  0  0  0  0  0  0  0  0  0  0
  141.3780  138.8830  151.9100 C   0  0  0  0  0  1  0  0  0  0  0  0
  142.2920  136.4400  149.4750 O   0  0  0  0  0  0  0  0  0  0  0  0
  142.5120  136.5550  148.5730 H   0  0  0  0  0  0  0  0  0  0  0  0
  1  5  1  0  0  0  0
  1  2  2  0  0  0  0
  3  1  1  0  0  0  0
  4  3  1  0  0  0  0
  6  7  1  0  0  0  0
  6  5  1  0  0  0  0
  8  7  1  0  0  0  0
  9  8  1  0  0  0  0
 10 12  1  0  0  0  0
 10  9  1  0  0  0  0
 11 12  1  0  0  0  0
 13  3  1  0  0  0  0
 14 15  1  0  0  0  0
 14 13  1  0  0  0  0
 16 21  1  0  0  0  0
 16 15  2  0  0  0  0
 17 16  1  0  0  0  0
 18 17  2  0  0  0  0
 18 19  1  0  0  0  0
 19 14  2  0  0  0  0
 20 19  1  0  0  0  0
 22 21  1  0  0  0  0
 23 17  1  0  0  0  0
 24 23  1  0  0  0  0
M  END
>  <MODEL>
4

>  <REMARK>
 VINA RESULT:    -5.934      2.140      3.022
 INTER + INTRA:         -10.480
 INTER:                  -8.835
 INTRA:                  -1.645
 UNBOUND:                -0.903
  Name = CHEMBL190554
  13 active torsions:
  status: ('A' for Active; 'I' for Inactive)
    1  A    between atoms: C_1  and  C_2
    2  A    between atoms: C_2  and  C_3
    3  A    between atoms: C_3  and  C_4
    4  A    between atoms: C_4  and  C_5
    5  A    between atoms: C_5  and  C_6
    6  A    between atoms: C_6  and  C_7
    7  A    between atoms: C_7  and  C_8
    8  A    between atoms: C_8  and  C_9
    9  A    between atoms: N_11  and  C_12
   10  A    between atoms: C_12  and  C_13
   11  A    between atoms: C_15  and  O_16
   12  A    between atoms: O_16  and  C_17
   13  A    between atoms: C_18  and  O_19
                            x       y       z     vdW  Elec       q    Type
                         _______ _______ _______ _____ _____    ______ ____

>  <TORSDO>
F 11

>  <SCORE>
-5.934

>  <RMSD_LB>
2.140

>  <RMSD_UB>
3.022

$$$$
CHEMBL190554
 OpenBabel10172500483D

 24 24  0  0  0  0  0  0  0  0999 V2000
  146.9280  137.2200  152.7020 C   0  0  0  0  0  0  0  0  0  0  0  0
  147.5440  137.0090  151.6540 O   0  0  0  0  0  0  0  0  0  0  0  0
  145.5580  137.2770  152.7680 N   0  0  0  0  0  0  0  0  0  0  0  0
  145.1160  137.4340  153.6330 H   0  0  0  0  0  0  0  0  0  0  0  0
  147.6430  137.3930  154.0240 C   0  0  0  0  0  2  0  0  0  0  0  0
  147.6290  138.8460  154.4920 C   0  0  0  0  0  2  0  0  0  0  0  0
  148.5230  139.7410  153.6310 C   0  0  0  0  0  2  0  0  0  0  0  0
  148.5340  141.1670  154.1760 C   0  0  0  0  0  2  0  0  0  0  0  0
  147.7920  142.1140  153.2370 C   0  0  0  0  0  2  0  0  0  0  0  0
  148.0570  141.7530  151.7790 C   0  0  0  0  0  2  0  0  0  0  0  0
  145.6360  142.3860  151.6030 C   0  0  0  0  0  1  0  0  0  0  0  0
  146.9640  142.3060  150.8690 C   0  0  0  0  0  2  0  0  0  0  0  0
  144.7560  137.1090  151.5720 C   0  0  0  0  0  2  0  0  0  0  0  0
  143.2830  137.3550  151.8090 C   0  0  0  0  0  0  0  0  0  0  0  0
  142.8540  137.9530  153.0200 C   0  0  0  0  0  3  0  0  0  0  0  0
  141.4930  138.2110  153.3040 C   0  0  0  0  0  0  0  0  0  0  0  0
  140.5450  137.8550  152.3370 C   0  0  0  0  0  0  0  0  0  0  0  0
  140.9570  137.2430  151.1530 C   0  0  0  0  0  3  0  0  0  0  0  0
  142.3010  136.9840  150.8890 C   0  0  0  0  0  0  0  0  0  0  0  0
  142.6900  136.0960  149.2560 Br  0  0  0  0  0  0  0  0  0  0  0  0
  141.3150  138.7930  154.5290 O   0  0  0  0  0  0  0  0  0  0  0  0
  142.4000  139.4340  155.1770 C   0  0  0  0  0  1  0  0  0  0  0  0
  139.1960  138.0280  152.3760 O   0  0  0  0  0  0  0  0  0  0  0  0
  138.7960  138.7080  151.8710 H   0  0  0  0  0  0  0  0  0  0  0  0
  1  3  1  0  0  0  0
  1  5  1  0  0  0  0
  2  1  2  0  0  0  0
  3  4  1  0  0  0  0
  5  6  1  0  0  0  0
  7  8  1  0  0  0  0
  7  6  1  0  0  0  0
  9  8  1  0  0  0  0
 10  9  1  0  0  0  0
 12 11  1  0  0  0  0
 12 10  1  0  0  0  0
 13 14  1  0  0  0  0
 13  3  1  0  0  0  0
 14 15  1  0  0  0  0
 15 16  2  0  0  0  0
 16 21  1  0  0  0  0
 17 23  1  0  0  0  0
 17 16  1  0  0  0  0
 18 17  2  0  0  0  0
 19 18  1  0  0  0  0
 19 14  2  0  0  0  0
 20 19  1  0  0  0  0
 21 22  1  0  0  0  0
 24 23  1  0  0  0  0
M  END
>  <MODEL>
5

>  <REMARK>
 VINA RESULT:    -5.870      2.698      4.312
 INTER + INTRA:         -10.375
 INTER:                  -9.464
 INTRA:                  -0.912
 UNBOUND:                -0.903
  Name = CHEMBL190554
  13 active torsions:
  status: ('A' for Active; 'I' for Inactive)
    1  A    between atoms: C_1  and  C_2
    2  A    between atoms: C_2  and  C_3
    3  A    between atoms: C_3  and  C_4
    4  A    between atoms: C_4  and  C_5
    5  A    between atoms: C_5  and  C_6
    6  A    between atoms: C_6  and  C_7
    7  A    between atoms: C_7  and  C_8
    8  A    between atoms: C_8  and  C_9
    9  A    between atoms: N_11  and  C_12
   10  A    between atoms: C_12  and  C_13
   11  A    between atoms: C_15  and  O_16
   12  A    between atoms: O_16  and  C_17
   13  A    between atoms: C_18  and  O_19
                            x       y       z     vdW  Elec       q    Type
                         _______ _______ _______ _____ _____    ______ ____

>  <TORSDO>
F 11

>  <SCORE>
-5.870

>  <RMSD_LB>
2.698

>  <RMSD_UB>
4.312

$$$$
CHEMBL190554
 OpenBabel10172500483D

 24 24  0  0  0  0  0  0  0  0999 V2000
  136.7980  136.3070  151.9980 C   0  0  0  0  0  0  0  0  0  0  0  0
  136.4680  136.9240  153.0150 O   0  0  0  0  0  0  0  0  0  0  0  0
  137.7370  136.7710  151.1120 N   0  0  0  0  0  0  0  0  0  0  0  0
  137.9740  136.2310  150.3230 H   0  0  0  0  0  0  0  0  0  0  0  0
  136.2150  134.9510  151.6680 C   0  0  0  0  0  2  0  0  0  0  0  0
  134.8280  135.0650  151.0430 C   0  0  0  0  0  2  0  0  0  0  0  0
  133.9320  133.8770  151.3960 C   0  0  0  0  0  2  0  0  0  0  0  0
  132.9550  133.5860  150.2600 C   0  0  0  0  0  2  0  0  0  0  0  0
  133.6960  133.1020  149.0170 C   0  0  0  0  0  2  0  0  0  0  0  0
  133.1130  133.7310  147.7550 C   0  0  0  0  0  2  0  0  0  0  0  0
  132.8230  136.2190  147.6080 C   0  0  0  0  0  1  0  0  0  0  0  0
  133.7930  135.0610  147.4410 C   0  0  0  0  0  2  0  0  0  0  0  0
  138.3830  138.0510  151.3260 C   0  0  0  0  0  2  0  0  0  0  0  0
  139.6510  137.9440  152.1420 C   0  0  0  0  0  0  0  0  0  0  0  0
  139.6320  138.2710  153.5210 C   0  0  0  0  0  3  0  0  0  0  0  0
  140.7820  138.1930  154.3410 C   0  0  0  0  0  0  0  0  0  0  0  0
  141.9780  137.7700  153.7490 C   0  0  0  0  0  0  0  0  0  0  0  0
  142.0110  137.4700  152.3870 C   0  0  0  0  0  3  0  0  0  0  0  0
  140.8730  137.5620  151.5870 C   0  0  0  0  0  0  0  0  0  0  0  0
  141.0980  137.1700  149.7420 Br  0  0  0  0  0  0  0  0  0  0  0  0
  140.5280  138.5550  155.6350 O   0  0  0  0  0  0  0  0  0  0  0  0
  139.9310  137.6330  156.5290 C   0  0  0  0  0  1  0  0  0  0  0  0
  143.1930  137.5930  154.3370 O   0  0  0  0  0  0  0  0  0  0  0  0
  143.3380  137.8950  155.2110 H   0  0  0  0  0  0  0  0  0  0  0  0
  1  2  2  0  0  0  0
  3 13  1  0  0  0  0
  3  1  1  0  0  0  0
  4  3  1  0  0  0  0
  5  1  1  0  0  0  0
  6  7  1  0  0  0  0
  6  5  1  0  0  0  0
  8  7  1  0  0  0  0
  9  8  1  0  0  0  0
 10  9  1  0  0  0  0
 12 11  1  0  0  0  0
 12 10  1  0  0  0  0
 13 14  1  0  0  0  0
 14 15  1  0  0  0  0
 15 16  2  0  0  0  0
 16 21  1  0  0  0  0
 17 23  1  0  0  0  0
 17 16  1  0  0  0  0
 18 17  2  0  0  0  0
 19 14  2  0  0  0  0
 19 18  1  0  0  0  0
 20 19  1  0  0  0  0
 21 22  1  0  0  0  0
 23 24  1  0  0  0  0
M  END
>  <MODEL>
6

>  <REMARK>
 VINA RESULT:    -5.869      7.786     11.008
 INTER + INTRA:         -10.375
 INTER:                  -9.482
 INTRA:                  -0.893
 UNBOUND:                -0.903
  Name = CHEMBL190554
  13 active torsions:
  status: ('A' for Active; 'I' for Inactive)
    1  A    between atoms: C_1  and  C_2
    2  A    between atoms: C_2  and  C_3
    3  A    between atoms: C_3  and  C_4
    4  A    between atoms: C_4  and  C_5
    5  A    between atoms: C_5  and  C_6
    6  A    between atoms: C_6  and  C_7
    7  A    between atoms: C_7  and  C_8
    8  A    between atoms: C_8  and  C_9
    9  A    between atoms: N_11  and  C_12
   10  A    between atoms: C_12  and  C_13
   11  A    between atoms: C_15  and  O_16
   12  A    between atoms: O_16  and  C_17
   13  A    between atoms: C_18  and  O_19
                            x       y       z     vdW  Elec       q    Type
                         _______ _______ _______ _____ _____    ______ ____

>  <TORSDO>
F 11

>  <SCORE>
-5.869

>  <RMSD_LB>
7.786

>  <RMSD_UB>
11.008

$$$$
CHEMBL190554
 OpenBabel10172500483D

 24 24  0  0  0  0  0  0  0  0999 V2000
  144.3890  139.5130  151.6850 C   0  0  0  0  0  0  0  0  0  0  0  0
  144.0320  139.8900  152.8050 O   0  0  0  0  0  0  0  0  0  0  0  0
  144.0710  138.2810  151.1730 N   0  0  0  0  0  0  0  0  0  0  0  0
  144.3690  138.0350  150.2680 H   0  0  0  0  0  0  0  0  0  0  0  0
  145.1810  140.4090  150.7600 C   0  0  0  0  0  2  0  0  0  0  0  0
  145.2020  141.8550  151.2490 C   0  0  0  0  0  2  0  0  0  0  0  0
  146.5640  142.2550  151.8200 C   0  0  0  0  0  2  0  0  0  0  0  0
  146.5730  142.0970  153.3390 C   0  0  0  0  0  2  0  0  0  0  0  0
  147.9780  141.7810  153.8440 C   0  0  0  0  0  2  0  0  0  0  0  0
  148.3600  140.3390  153.5220 C   0  0  0  0  0  2  0  0  0  0  0  0
  147.6770  138.7650  155.3530 C   0  0  0  0  0  1  0  0  0  0  0  0
  147.2910  139.3660  154.0120 C   0  0  0  0  0  2  0  0  0  0  0  0
  143.3000  137.3340  151.9560 C   0  0  0  0  0  2  0  0  0  0  0  0
  141.8090  137.4720  151.7470 C   0  0  0  0  0  0  0  0  0  0  0  0
  141.2560  137.2750  150.4570 C   0  0  0  0  0  3  0  0  0  0  0  0
  139.8720  137.3880  150.1930 C   0  0  0  0  0  0  0  0  0  0  0  0
  139.0270  137.7070  151.2630 C   0  0  0  0  0  0  0  0  0  0  0  0
  139.5660  137.9270  152.5310 C   0  0  0  0  0  3  0  0  0  0  0  0
  140.9330  137.8230  152.7760 C   0  0  0  0  0  0  0  0  0  0  0  0
  141.5120  138.2050  154.5450 Br  0  0  0  0  0  0  0  0  0  0  0  0
  139.5680  137.1560  148.8800 O   0  0  0  0  0  0  0  0  0  0  0  0
  139.2700  138.2390  148.0160 C   0  0  0  0  0  1  0  0  0  0  0  0
  137.6720  137.8410  151.2570 O   0  0  0  0  0  0  0  0  0  0  0  0
  137.1980  137.8400  152.0640 H   0  0  0  0  0  0  0  0  0  0  0  0
  1  2  2  0  0  0  0
  3  1  1  0  0  0  0
  3 13  1  0  0  0  0
  4  3  1  0  0  0  0
  5  6  1  0  0  0  0
  5  1  1  0  0  0  0
  6  7  1  0  0  0  0
  7  8  1  0  0  0  0
  8  9  1  0  0  0  0
 10  9  1  0  0  0  0
 10 12  1  0  0  0  0
 12 11  1  0  0  0  0
 14 13  1  0  0  0  0
 14 19  1  0  0  0  0
 15 14  2  0  0  0  0
 16 15  1  0  0  0  0
 16 17  2  0  0  0  0
 17 18  1  0  0  0  0
 18 19  2  0  0  0  0
 19 20  1  0  0  0  0
 21 16  1  0  0  0  0
 22 21  1  0  0  0  0
 23 17  1  0  0  0  0
 23 24  1  0  0  0  0
M  END
>  <MODEL>
7

>  <REMARK>
 VINA RESULT:    -5.795      3.274      4.914
 INTER + INTRA:         -10.254
 INTER:                  -9.147
 INTRA:                  -1.107
 UNBOUND:                -0.903
  Name = CHEMBL190554
  13 active torsions:
  status: ('A' for Active; 'I' for Inactive)
    1  A    between atoms: C_1  and  C_2
    2  A    between atoms: C_2  and  C_3
    3  A    between atoms: C_3  and  C_4
    4  A    between atoms: C_4  and  C_5
    5  A    between atoms: C_5  and  C_6
    6  A    between atoms: C_6  and  C_7
    7  A    between atoms: C_7  and  C_8
    8  A    between atoms: C_8  and  C_9
    9  A    between atoms: N_11  and  C_12
   10  A    between atoms: C_12  and  C_13
   11  A    between atoms: C_15  and  O_16
   12  A    between atoms: O_16  and  C_17
   13  A    between atoms: C_18  and  O_19
                            x       y       z     vdW  Elec       q    Type
                         _______ _______ _______ _____ _____    ______ ____

>  <TORSDO>
F 11

>  <SCORE>
-5.795

>  <RMSD_LB>
3.274

>  <RMSD_UB>
4.914

$$$$
CHEMBL190554
 OpenBabel10172500483D

 24 24  0  0  0  0  0  0  0  0999 V2000
  146.4020  142.0400  152.1660 C   0  0  0  0  0  0  0  0  0  0  0  0
  147.2830  142.2850  151.3380 O   0  0  0  0  0  0  0  0  0  0  0  0
  145.1820  141.5110  151.8280 N   0  0  0  0  0  0  0  0  0  0  0  0
  144.5200  141.3210  152.5300 H   0  0  0  0  0  0  0  0  0  0  0  0
  146.6170  142.2650  153.6460 C   0  0  0  0  0  2  0  0  0  0  0  0
  147.8520  141.5300  154.1600 C   0  0  0  0  0  2  0  0  0  0  0  0
  147.8080  140.0330  153.8470 C   0  0  0  0  0  2  0  0  0  0  0  0
  147.0060  139.2880  154.9110 C   0  0  0  0  0  2  0  0  0  0  0  0
  145.7390  138.6830  154.3130 C   0  0  0  0  0  2  0  0  0  0  0  0
  144.5030  139.4590  154.7570 C   0  0  0  0  0  2  0  0  0  0  0  0
  143.1350  137.6580  153.6710 C   0  0  0  0  0  1  0  0  0  0  0  0
  143.3110  139.1560  153.8530 C   0  0  0  0  0  2  0  0  0  0  0  0
  144.8590  141.2320  150.4420 C   0  0  0  0  0  2  0  0  0  0  0  0
  144.0720  139.9540  150.2640 C   0  0  0  0  0  0  0  0  0  0  0  0
  142.6650  140.0080  150.1020 C   0  0  0  0  0  3  0  0  0  0  0  0
  141.8710  138.8510  149.9320 C   0  0  0  0  0  0  0  0  0  0  0  0
  142.5180  137.6100  149.9240 C   0  0  0  0  0  0  0  0  0  0  0  0
  143.8990  137.5450  150.1090 C   0  0  0  0  0  3  0  0  0  0  0  0
  144.6700  138.6920  150.2870 C   0  0  0  0  0  0  0  0  0  0  0  0
  146.5290  138.4300  150.5790 Br  0  0  0  0  0  0  0  0  0  0  0  0
  140.5420  139.1440  149.7930 O   0  0  0  0  0  0  0  0  0  0  0  0
  139.8440  139.7980  150.8390 C   0  0  0  0  0  1  0  0  0  0  0  0
  141.9710  136.3750  149.7510 O   0  0  0  0  0  0  0  0  0  0  0  0
  141.0480  136.2860  149.6230 H   0  0  0  0  0  0  0  0  0  0  0  0
  1  5  1  0  0  0  0
  2  1  2  0  0  0  0
  3  1  1  0  0  0  0
  3  4  1  0  0  0  0
  5  6  1  0  0  0  0
  7  6  1  0  0  0  0
  7  8  1  0  0  0  0
  9 10  1  0  0  0  0
  9  8  1  0  0  0  0
 11 12  1  0  0  0  0
 12 10  1  0  0  0  0
 13  3  1  0  0  0  0
 14 19  1  0  0  0  0
 14 13  1  0  0  0  0
 15 14  2  0  0  0  0
 16 15  1  0  0  0  0
 17 16  2  0  0  0  0
 17 18  1  0  0  0  0
 18 19  2  0  0  0  0
 19 20  1  0  0  0  0
 21 16  1  0  0  0  0
 21 22  1  0  0  0  0
 23 17  1  0  0  0  0
 24 23  1  0  0  0  0
M  END
>  <MODEL>
8

>  <REMARK>
 VINA RESULT:    -5.682      2.757      4.608
 INTER + INTRA:         -10.073
 INTER:                  -8.091
 INTRA:                  -1.982
 UNBOUND:                -0.903
  Name = CHEMBL190554
  13 active torsions:
  status: ('A' for Active; 'I' for Inactive)
    1  A    between atoms: C_1  and  C_2
    2  A    between atoms: C_2  and  C_3
    3  A    between atoms: C_3  and  C_4
    4  A    between atoms: C_4  and  C_5
    5  A    between atoms: C_5  and  C_6
    6  A    between atoms: C_6  and  C_7
    7  A    between atoms: C_7  and  C_8
    8  A    between atoms: C_8  and  C_9
    9  A    between atoms: N_11  and  C_12
   10  A    between atoms: C_12  and  C_13
   11  A    between atoms: C_15  and  O_16
   12  A    between atoms: O_16  and  C_17
   13  A    between atoms: C_18  and  O_19
                            x       y       z     vdW  Elec       q    Type
                         _______ _______ _______ _____ _____    ______ ____

>  <TORSDO>
F 11

>  <SCORE>
-5.682

>  <RMSD_LB>
2.757

>  <RMSD_UB>
4.608

$$$$
CHEMBL190554
 OpenBabel10172500483D

 24 24  0  0  0  0  0  0  0  0999 V2000
  144.1050  138.3920  150.2920 C   0  0  0  0  0  0  0  0  0  0  0  0
  143.7660  139.3320  149.5690 O   0  0  0  0  0  0  0  0  0  0  0  0
  145.3770  138.2470  150.7860 N   0  0  0  0  0  0  0  0  0  0  0  0
  145.5910  137.4850  151.3720 H   0  0  0  0  0  0  0  0  0  0  0  0
  143.1200  137.3320  150.7330 C   0  0  0  0  0  2  0  0  0  0  0  0
  142.8410  137.4030  152.2320 C   0  0  0  0  0  2  0  0  0  0  0  0
  141.3670  137.6790  152.5350 C   0  0  0  0  0  2  0  0  0  0  0  0
  140.9140  138.9700  151.8570 C   0  0  0  0  0  2  0  0  0  0  0  0
  139.5310  138.8030  151.2370 C   0  0  0  0  0  2  0  0  0  0  0  0
  139.1730  137.3270  151.0940 C   0  0  0  0  0  2  0  0  0  0  0  0
  136.8990  136.8960  150.1250 C   0  0  0  0  0  1  0  0  0  0  0  0
  137.6980  137.0870  151.4040 C   0  0  0  0  0  2  0  0  0  0  0  0
  146.4110  139.2080  150.4520 C   0  0  0  0  0  2  0  0  0  0  0  0
  146.9700  139.9200  151.6620 C   0  0  0  0  0  0  0  0  0  0  0  0
  147.3880  139.1700  152.7900 C   0  0  0  0  0  3  0  0  0  0  0  0
  147.9190  139.7740  153.9540 C   0  0  0  0  0  0  0  0  0  0  0  0
  148.0320  141.1690  153.9730 C   0  0  0  0  0  0  0  0  0  0  0  0
  147.5990  141.9160  152.8760 C   0  0  0  0  0  3  0  0  0  0  0  0
  147.0670  141.3100  151.7400 C   0  0  0  0  0  0  0  0  0  0  0  0
  146.4760  142.4710  150.3570 Br  0  0  0  0  0  0  0  0  0  0  0  0
  148.2540  138.8570  154.9120 O   0  0  0  0  0  0  0  0  0  0  0  0
  147.3140  138.4920  155.9080 C   0  0  0  0  0  1  0  0  0  0  0  0
  148.5330  141.9610  154.9600 O   0  0  0  0  0  0  0  0  0  0  0  0
  147.9530  142.4630  155.4970 H   0  0  0  0  0  0  0  0  0  0  0  0
  1  5  1  0  0  0  0
  1  3  1  0  0  0  0
  2  1  2  0  0  0  0
  3  4  1  0  0  0  0
  5  6  1  0  0  0  0
  6  7  1  0  0  0  0
  8  7  1  0  0  0  0
  9  8  1  0  0  0  0
 10  9  1  0  0  0  0
 10 12  1  0  0  0  0
 11 12  1  0  0  0  0
 13  3  1  0  0  0  0
 13 14  1  0  0  0  0
 14 19  2  0  0  0  0
 14 15  1  0  0  0  0
 15 16  2  0  0  0  0
 16 17  1  0  0  0  0
 16 21  1  0  0  0  0
 17 23  1  0  0  0  0
 18 17  2  0  0  0  0
 19 18  1  0  0  0  0
 20 19  1  0  0  0  0
 21 22  1  0  0  0  0
 23 24  1  0  0  0  0
M  END
>  <MODEL>
9

>  <REMARK>
 VINA RESULT:    -5.615      3.408      6.746
 INTER + INTRA:          -9.965
 INTER:                  -9.062
 INTRA:                  -0.903
 UNBOUND:                -0.903
  Name = CHEMBL190554
  13 active torsions:
  status: ('A' for Active; 'I' for Inactive)
    1  A    between atoms: C_1  and  C_2
    2  A    between atoms: C_2  and  C_3
    3  A    between atoms: C_3  and  C_4
    4  A    between atoms: C_4  and  C_5
    5  A    between atoms: C_5  and  C_6
    6  A    between atoms: C_6  and  C_7
    7  A    between atoms: C_7  and  C_8
    8  A    between atoms: C_8  and  C_9
    9  A    between atoms: N_11  and  C_12
   10  A    between atoms: C_12  and  C_13
   11  A    between atoms: C_15  and  O_16
   12  A    between atoms: O_16  and  C_17
   13  A    between atoms: C_18  and  O_19
                            x       y       z     vdW  Elec       q    Type
                         _______ _______ _______ _____ _____    ______ ____

>  <TORSDO>
F 11

>  <SCORE>
-5.615

>  <RMSD_LB>
3.408

>  <RMSD_UB>
6.746

$$$$
