CHEMBL86481
 OpenBabel10172500423D

 23 24  0  0  0  0  0  0  0  0999 V2000
  145.4280  138.5380  154.1230 C   0  0  0  0  0  0  0  0  0  0  0  0
  145.6400  138.9120  155.2740 O   0  0  0  0  0  0  0  0  0  0  0  0
  145.9130  139.1790  153.0030 N   0  0  0  0  0  0  0  0  0  0  0  0
  145.7100  138.7780  152.1270 H   0  0  0  0  0  0  0  0  0  0  0  0
  146.7120  140.4150  153.0170 C   0  0  0  0  0  3  0  0  0  0  0  0
  145.8510  141.6620  152.7530 C   0  0  0  0  0  2  0  0  0  0  0  0
  145.2010  141.6820  151.3680 C   0  0  0  0  0  2  0  0  0  0  0  0
  145.8130  142.6640  150.3710 C   0  0  0  0  0  2  0  0  0  0  0  0
  147.2650  142.4180  149.9510 C   0  0  0  0  0  2  0  0  0  0  0  0
  148.2990  142.6520  151.0530 C   0  0  0  0  0  2  0  0  0  0  0  0
  148.8140  141.4060  151.7840 C   0  0  0  0  0  2  0  0  0  0  0  0
  147.8640  140.2330  152.0140 C   0  0  0  0  0  2  0  0  0  0  0  0
  144.5560  137.3260  153.8170 C   0  0  0  0  0  2  0  0  0  0  0  0
  140.8620  138.3300  154.1880 C   0  0  0  0  0  0  0  0  0  0  0  0
  142.2200  138.1260  154.4730 C   0  0  0  0  0  3  0  0  0  0  0  0
  143.1040  137.6420  153.4940 C   0  0  0  0  0  0  0  0  0  0  0  0
  142.6010  137.3440  152.2200 C   0  0  0  0  0  3  0  0  0  0  0  0
  141.2460  137.5430  151.9230 C   0  0  0  0  0  3  0  0  0  0  0  0
  140.3870  138.0380  152.9030 C   0  0  0  0  0  0  0  0  0  0  0  0
  139.4570  137.8690  156.0600 C   0  0  0  0  0  1  0  0  0  0  0  0
  139.9330  138.7880  155.0870 O   0  0  0  0  0  0  0  0  0  0  0  0
  139.0590  138.2120  152.6180 O   0  0  0  0  0  0  0  0  0  0  0  0
  138.6320  139.0140  152.8450 H   0  0  0  0  0  0  0  0  0  0  0  0
  1  2  2  0  0  0  0
  3  5  1  0  0  0  0
  3  1  1  0  0  0  0
  4  3  1  0  0  0  0
  6  5  1  0  0  0  0
  7  6  1  0  0  0  0
  8  7  1  0  0  0  0
  9  8  1  0  0  0  0
  9 10  1  0  0  0  0
 10 11  1  0  0  0  0
 11 12  1  0  0  0  0
 12  5  1  0  0  0  0
 13  1  1  0  0  0  0
 14 15  1  0  0  0  0
 14 21  1  0  0  0  0
 16 13  1  0  0  0  0
 16 15  2  0  0  0  0
 17 16  1  0  0  0  0
 18 17  2  0  0  0  0
 18 19  1  0  0  0  0
 19 14  2  0  0  0  0
 21 20  1  0  0  0  0
 22 23  1  0  0  0  0
 22 19  1  0  0  0  0
M  END
>  <MODEL>
1

>  <REMARK>
 VINA RESULT:    -7.767      0.000      0.000
 INTER + INTRA:         -10.080
 INTER:                  -9.477
 INTRA:                  -0.603
 UNBOUND:                -0.269
  Name = CHEMBL86481
  6 active torsions:
  status: ('A' for Active; 'I' for Inactive)
    1  A    between atoms: C_1  and  O_2
    2  A    between atoms: O_2  and  C_3
    3  A    between atoms: C_5  and  C_6
    4  A    between atoms: C_6  and  C_7
    5  A    between atoms: N_9  and  C_10
    6  A    between atoms: C_20  and  O_21
                            x       y       z     vdW  Elec       q    Type
                         _______ _______ _______ _____ _____    ______ ____

>  <TORSDO>
F 5

>  <SCORE>
-7.767

>  <RMSD_LB>
0.000

>  <RMSD_UB>
0.000

$$$$
CHEMBL86481
 OpenBabel10172500423D

 23 24  0  0  0  0  0  0  0  0999 V2000
  142.9990  138.9530  151.2330 C   0  0  0  0  0  0  0  0  0  0  0  0
  142.3740  139.9120  150.7880 O   0  0  0  0  0  0  0  0  0  0  0  0
  144.3720  138.9190  151.3570 N   0  0  0  0  0  0  0  0  0  0  0  0
  144.7720  138.1130  151.7550 H   0  0  0  0  0  0  0  0  0  0  0  0
  145.2850  139.9960  150.9400 C   0  0  0  0  0  3  0  0  0  0  0  0
  146.7280  139.4940  150.7610 C   0  0  0  0  0  2  0  0  0  0  0  0
  147.3650  138.9760  152.0530 C   0  0  0  0  0  2  0  0  0  0  0  0
  148.4240  139.8860  152.6710 C   0  0  0  0  0  2  0  0  0  0  0  0
  147.9610  141.2590  153.1660 C   0  0  0  0  0  2  0  0  0  0  0  0
  147.5470  142.2330  152.0630 C   0  0  0  0  0  2  0  0  0  0  0  0
  146.0420  142.3660  151.7960 C   0  0  0  0  0  2  0  0  0  0  0  0
  145.1470  141.1390  151.9600 C   0  0  0  0  0  2  0  0  0  0  0  0
  142.3050  137.6670  151.6630 C   0  0  0  0  0  2  0  0  0  0  0  0
  139.7070  138.2160  154.4450 C   0  0  0  0  0  0  0  0  0  0  0  0
  140.9320  138.1290  153.7670 C   0  0  0  0  0  3  0  0  0  0  0  0
  140.9820  137.8580  152.3890 C   0  0  0  0  0  0  0  0  0  0  0  0
  139.7800  137.6570  151.6980 C   0  0  0  0  0  3  0  0  0  0  0  0
  138.5500  137.7410  152.3630 C   0  0  0  0  0  3  0  0  0  0  0  0
  138.5190  138.0250  153.7280 C   0  0  0  0  0  0  0  0  0  0  0  0
  140.2440  137.5950  156.6850 C   0  0  0  0  0  1  0  0  0  0  0  0
  139.5700  138.4650  155.7870 O   0  0  0  0  0  0  0  0  0  0  0  0
  137.3170  138.0860  154.3810 O   0  0  0  0  0  0  0  0  0  0  0  0
  136.7580  137.3350  154.4050 H   0  0  0  0  0  0  0  0  0  0  0  0
  1  3  1  0  0  0  0
  1 13  1  0  0  0  0
  2  1  2  0  0  0  0
  3  4  1  0  0  0  0
  5  3  1  0  0  0  0
  5 12  1  0  0  0  0
  6  5  1  0  0  0  0
  6  7  1  0  0  0  0
  7  8  1  0  0  0  0
  8  9  1  0  0  0  0
 10  9  1  0  0  0  0
 11 12  1  0  0  0  0
 11 10  1  0  0  0  0
 13 16  1  0  0  0  0
 14 21  1  0  0  0  0
 15 14  1  0  0  0  0
 16 15  2  0  0  0  0
 17 18  2  0  0  0  0
 17 16  1  0  0  0  0
 18 19  1  0  0  0  0
 19 22  1  0  0  0  0
 19 14  2  0  0  0  0
 21 20  1  0  0  0  0
 22 23  1  0  0  0  0
M  END
>  <MODEL>
2

>  <REMARK>
 VINA RESULT:    -7.336      2.035      2.907
 INTER + INTRA:          -9.535
 INTER:                  -9.151
 INTRA:                  -0.384
 UNBOUND:                -0.269
  Name = CHEMBL86481
  6 active torsions:
  status: ('A' for Active; 'I' for Inactive)
    1  A    between atoms: C_1  and  O_2
    2  A    between atoms: O_2  and  C_3
    3  A    between atoms: C_5  and  C_6
    4  A    between atoms: C_6  and  C_7
    5  A    between atoms: N_9  and  C_10
    6  A    between atoms: C_20  and  O_21
                            x       y       z     vdW  Elec       q    Type
                         _______ _______ _______ _____ _____    ______ ____

>  <TORSDO>
F 5

>  <SCORE>
-7.336

>  <RMSD_LB>
2.035

>  <RMSD_UB>
2.907

$$$$
CHEMBL86481
 OpenBabel10172500423D

 23 24  0  0  0  0  0  0  0  0999 V2000
  142.8850  138.6040  153.9230 C   0  0  0  0  0  0  0  0  0  0  0  0
  143.2790  137.4470  153.7980 O   0  0  0  0  0  0  0  0  0  0  0  0
  143.3300  139.6560  153.1510 N   0  0  0  0  0  0  0  0  0  0  0  0
  142.9270  140.5390  153.3130 H   0  0  0  0  0  0  0  0  0  0  0  0
  144.3600  139.5600  152.1030 C   0  0  0  0  0  3  0  0  0  0  0  0
  145.7520  139.9540  152.6240 C   0  0  0  0  0  2  0  0  0  0  0  0
  145.8510  141.4130  153.0780 C   0  0  0  0  0  2  0  0  0  0  0  0
  146.6270  142.3380  152.1430 C   0  0  0  0  0  2  0  0  0  0  0  0
  146.0490  142.5610  150.7430 C   0  0  0  0  0  2  0  0  0  0  0  0
  146.0990  141.3380  149.8260 C   0  0  0  0  0  2  0  0  0  0  0  0
  144.8060  140.5250  149.6970 C   0  0  0  0  0  2  0  0  0  0  0  0
  143.8820  140.4010  150.9080 C   0  0  0  0  0  2  0  0  0  0  0  0
  141.8770  139.0010  154.9940 C   0  0  0  0  0  2  0  0  0  0  0  0
  138.3990  137.4490  155.5250 C   0  0  0  0  0  0  0  0  0  0  0  0
  139.6780  137.9660  155.7800 C   0  0  0  0  0  3  0  0  0  0  0  0
  140.4540  138.5240  154.7500 C   0  0  0  0  0  0  0  0  0  0  0  0
  139.9350  138.5400  153.4480 C   0  0  0  0  0  3  0  0  0  0  0  0
  138.6590  138.0260  153.1810 C   0  0  0  0  0  3  0  0  0  0  0  0
  137.8980  137.4890  154.2180 C   0  0  0  0  0  0  0  0  0  0  0  0
  136.9750  137.7440  157.4170 C   0  0  0  0  0  1  0  0  0  0  0  0
  137.5830  136.8780  156.4690 O   0  0  0  0  0  0  0  0  0  0  0  0
  136.6600  136.9680  153.9520 O   0  0  0  0  0  0  0  0  0  0  0  0
  136.3650  136.2060  154.4080 H   0  0  0  0  0  0  0  0  0  0  0  0
  1 13  1  0  0  0  0
  2  1  2  0  0  0  0
  3  4  1  0  0  0  0
  3  1  1  0  0  0  0
  5  6  1  0  0  0  0
  5  3  1  0  0  0  0
  6  7  1  0  0  0  0
  8  7  1  0  0  0  0
  9  8  1  0  0  0  0
 10  9  1  0  0  0  0
 11 10  1  0  0  0  0
 11 12  1  0  0  0  0
 12  5  1  0  0  0  0
 14 15  1  0  0  0  0
 14 21  1  0  0  0  0
 16 13  1  0  0  0  0
 16 15  2  0  0  0  0
 17 16  1  0  0  0  0
 18 17  2  0  0  0  0
 18 19  1  0  0  0  0
 19 14  2  0  0  0  0
 21 20  1  0  0  0  0
 22 19  1  0  0  0  0
 22 23  1  0  0  0  0
M  END
>  <MODEL>
3

>  <REMARK>
 VINA RESULT:    -7.293      1.944      2.942
 INTER + INTRA:          -9.481
 INTER:                  -8.966
 INTRA:                  -0.515
 UNBOUND:                -0.269
  Name = CHEMBL86481
  6 active torsions:
  status: ('A' for Active; 'I' for Inactive)
    1  A    between atoms: C_1  and  O_2
    2  A    between atoms: O_2  and  C_3
    3  A    between atoms: C_5  and  C_6
    4  A    between atoms: C_6  and  C_7
    5  A    between atoms: N_9  and  C_10
    6  A    between atoms: C_20  and  O_21
                            x       y       z     vdW  Elec       q    Type
                         _______ _______ _______ _____ _____    ______ ____

>  <TORSDO>
F 5

>  <SCORE>
-7.293

>  <RMSD_LB>
1.944

>  <RMSD_UB>
2.942

$$$$
CHEMBL86481
 OpenBabel10172500423D

 23 24  0  0  0  0  0  0  0  0999 V2000
  144.5660  140.6890  150.1100 C   0  0  0  0  0  0  0  0  0  0  0  0
  144.9980  140.2560  149.0440 O   0  0  0  0  0  0  0  0  0  0  0  0
  143.4620  140.1770  150.7580 N   0  0  0  0  0  0  0  0  0  0  0  0
  143.2180  140.5770  151.6240 H   0  0  0  0  0  0  0  0  0  0  0  0
  142.6220  139.0770  150.2560 C   0  0  0  0  0  3  0  0  0  0  0  0
  141.4770  139.5870  149.3640 C   0  0  0  0  0  2  0  0  0  0  0  0
  140.4770  140.4850  150.0950 C   0  0  0  0  0  2  0  0  0  0  0  0
  139.1210  139.8470  150.3950 C   0  0  0  0  0  2  0  0  0  0  0  0
  139.1090  138.6490  151.3470 C   0  0  0  0  0  2  0  0  0  0  0  0
  139.7560  137.3800  150.7910 C   0  0  0  0  0  2  0  0  0  0  0  0
  141.1960  137.0950  151.2340 C   0  0  0  0  0  2  0  0  0  0  0  0
  142.1460  138.2660  151.4740 C   0  0  0  0  0  2  0  0  0  0  0  0
  145.1990  141.8840  150.8110 C   0  0  0  0  0  2  0  0  0  0  0  0
  147.8380  139.9980  152.8780 C   0  0  0  0  0  0  0  0  0  0  0  0
  146.9680  140.3520  151.8360 C   0  0  0  0  0  3  0  0  0  0  0  0
  146.2160  141.5370  151.8880 C   0  0  0  0  0  0  0  0  0  0  0  0
  146.3350  142.3620  153.0150 C   0  0  0  0  0  3  0  0  0  0  0  0
  147.2010  142.0200  154.0620 C   0  0  0  0  0  3  0  0  0  0  0  0
  147.9490  140.8460  153.9860 C   0  0  0  0  0  0  0  0  0  0  0  0
  147.9110  137.6190  153.0330 C   0  0  0  0  0  1  0  0  0  0  0  0
  148.5970  138.8560  152.9100 O   0  0  0  0  0  0  0  0  0  0  0  0
  148.7790  140.5030  155.0200 O   0  0  0  0  0  0  0  0  0  0  0  0
  148.9490  141.1160  155.7070 H   0  0  0  0  0  0  0  0  0  0  0  0
  1  3  1  0  0  0  0
  1 13  1  0  0  0  0
  2  1  2  0  0  0  0
  3  4  1  0  0  0  0
  5  3  1  0  0  0  0
  5 12  1  0  0  0  0
  6  7  1  0  0  0  0
  6  5  1  0  0  0  0
  7  8  1  0  0  0  0
  8  9  1  0  0  0  0
 10 11  1  0  0  0  0
 10  9  1  0  0  0  0
 11 12  1  0  0  0  0
 13 16  1  0  0  0  0
 14 21  1  0  0  0  0
 14 19  1  0  0  0  0
 15 16  1  0  0  0  0
 15 14  2  0  0  0  0
 16 17  2  0  0  0  0
 17 18  1  0  0  0  0
 19 18  2  0  0  0  0
 19 22  1  0  0  0  0
 21 20  1  0  0  0  0
 22 23  1  0  0  0  0
M  END
>  <MODEL>
4

>  <REMARK>
 VINA RESULT:    -7.261      3.341      7.199
 INTER + INTRA:          -9.440
 INTER:                  -8.889
 INTRA:                  -0.552
 UNBOUND:                -0.269
  Name = CHEMBL86481
  6 active torsions:
  status: ('A' for Active; 'I' for Inactive)
    1  A    between atoms: C_1  and  O_2
    2  A    between atoms: O_2  and  C_3
    3  A    between atoms: C_5  and  C_6
    4  A    between atoms: C_6  and  C_7
    5  A    between atoms: N_9  and  C_10
    6  A    between atoms: C_20  and  O_21
                            x       y       z     vdW  Elec       q    Type
                         _______ _______ _______ _____ _____    ______ ____

>  <TORSDO>
F 5

>  <SCORE>
-7.261

>  <RMSD_LB>
3.341

>  <RMSD_UB>
7.199

$$$$
CHEMBL86481
 OpenBabel10172500423D

 23 24  0  0  0  0  0  0  0  0999 V2000
  142.7470  139.0330  149.9070 C   0  0  0  0  0  0  0  0  0  0  0  0
  142.3200  139.7440  149.0010 O   0  0  0  0  0  0  0  0  0  0  0  0
  144.0240  139.1220  150.4190 N   0  0  0  0  0  0  0  0  0  0  0  0
  144.2550  138.5250  151.1670 H   0  0  0  0  0  0  0  0  0  0  0  0
  145.0660  140.0420  149.9350 C   0  0  0  0  0  3  0  0  0  0  0  0
  146.4740  139.4330  150.0520 C   0  0  0  0  0  2  0  0  0  0  0  0
  146.9040  139.1440  151.4920 C   0  0  0  0  0  2  0  0  0  0  0  0
  147.9510  140.0970  152.0660 C   0  0  0  0  0  2  0  0  0  0  0  0
  147.5450  141.5640  152.2270 C   0  0  0  0  0  2  0  0  0  0  0  0
  147.3500  142.3230  150.9140 C   0  0  0  0  0  2  0  0  0  0  0  0
  145.9060  142.4860  150.4250 C   0  0  0  0  0  2  0  0  0  0  0  0
  144.8990  141.3690  150.6940 C   0  0  0  0  0  2  0  0  0  0  0  0
  141.9000  137.9330  150.5360 C   0  0  0  0  0  2  0  0  0  0  0  0
  140.4680  138.7670  154.0070 C   0  0  0  0  0  0  0  0  0  0  0  0
  140.5780  138.5990  152.6190 C   0  0  0  0  0  3  0  0  0  0  0  0
  141.7290  138.0330  152.0440 C   0  0  0  0  0  0  0  0  0  0  0  0
  142.7840  137.6530  152.8850 C   0  0  0  0  0  3  0  0  0  0  0  0
  142.6860  137.8160  154.2730 C   0  0  0  0  0  3  0  0  0  0  0  0
  141.5300  138.3660  154.8260 C   0  0  0  0  0  0  0  0  0  0  0  0
  138.2110  138.5270  154.7430 C   0  0  0  0  0  1  0  0  0  0  0  0
  139.3860  139.3180  154.6460 O   0  0  0  0  0  0  0  0  0  0  0  0
  141.4450  138.5440  156.1810 O   0  0  0  0  0  0  0  0  0  0  0  0
  141.5470  139.3990  156.5480 H   0  0  0  0  0  0  0  0  0  0  0  0
  1  3  1  0  0  0  0
  1 13  1  0  0  0  0
  2  1  2  0  0  0  0
  3  4  1  0  0  0  0
  5  6  1  0  0  0  0
  5  3  1  0  0  0  0
  5 12  1  0  0  0  0
  6  7  1  0  0  0  0
  7  8  1  0  0  0  0
  8  9  1  0  0  0  0
 10  9  1  0  0  0  0
 11 12  1  0  0  0  0
 11 10  1  0  0  0  0
 13 16  1  0  0  0  0
 14 21  1  0  0  0  0
 14 19  1  0  0  0  0
 15 14  2  0  0  0  0
 16 15  1  0  0  0  0
 16 17  2  0  0  0  0
 17 18  1  0  0  0  0
 18 19  2  0  0  0  0
 19 22  1  0  0  0  0
 21 20  1  0  0  0  0
 22 23  1  0  0  0  0
M  END
>  <MODEL>
5

>  <REMARK>
 VINA RESULT:    -7.052      1.889      3.314
 INTER + INTRA:          -9.177
 INTER:                  -8.815
 INTRA:                  -0.361
 UNBOUND:                -0.269
  Name = CHEMBL86481
  6 active torsions:
  status: ('A' for Active; 'I' for Inactive)
    1  A    between atoms: C_1  and  O_2
    2  A    between atoms: O_2  and  C_3
    3  A    between atoms: C_5  and  C_6
    4  A    between atoms: C_6  and  C_7
    5  A    between atoms: N_9  and  C_10
    6  A    between atoms: C_20  and  O_21
                            x       y       z     vdW  Elec       q    Type
                         _______ _______ _______ _____ _____    ______ ____

>  <TORSDO>
F 5

>  <SCORE>
-7.052

>  <RMSD_LB>
1.889

>  <RMSD_UB>
3.314

$$$$
CHEMBL86481
 OpenBabel10172500423D

 23 24  0  0  0  0  0  0  0  0999 V2000
  143.2620  138.4990  150.7840 C   0  0  0  0  0  0  0  0  0  0  0  0
  142.9340  139.1790  149.8150 O   0  0  0  0  0  0  0  0  0  0  0  0
  144.4030  138.7170  151.5270 N   0  0  0  0  0  0  0  0  0  0  0  0
  144.5580  138.1320  152.3030 H   0  0  0  0  0  0  0  0  0  0  0  0
  145.4070  139.7570  151.2490 C   0  0  0  0  0  3  0  0  0  0  0  0
  146.8340  139.2860  151.5780 C   0  0  0  0  0  2  0  0  0  0  0  0
  147.0550  138.9750  153.0600 C   0  0  0  0  0  2  0  0  0  0  0  0
  147.8890  140.0000  153.8270 C   0  0  0  0  0  2  0  0  0  0  0  0
  147.3090  141.4100  153.9620 C   0  0  0  0  0  2  0  0  0  0  0  0
  147.2490  142.2060  152.6580 C   0  0  0  0  0  2  0  0  0  0  0  0
  145.8930  142.2480  151.9430 C   0  0  0  0  0  2  0  0  0  0  0  0
  144.9800  141.0250  152.0090 C   0  0  0  0  0  2  0  0  0  0  0  0
  142.4430  137.2980  151.2410 C   0  0  0  0  0  2  0  0  0  0  0  0
  138.7760  137.7520  152.3070 C   0  0  0  0  0  0  0  0  0  0  0  0
  139.9130  137.3590  151.5850 C   0  0  0  0  0  3  0  0  0  0  0  0
  141.2060  137.6340  152.0590 C   0  0  0  0  0  0  0  0  0  0  0  0
  141.3460  138.3310  153.2670 C   0  0  0  0  0  3  0  0  0  0  0  0
  140.2190  138.7290  153.9970 C   0  0  0  0  0  3  0  0  0  0  0  0
  138.9430  138.4340  153.5180 C   0  0  0  0  0  0  0  0  0  0  0  0
  137.2800  136.9400  150.6340 C   0  0  0  0  0  1  0  0  0  0  0  0
  137.4810  137.5320  151.9090 O   0  0  0  0  0  0  0  0  0  0  0  0
  137.8420  138.8430  154.2220 O   0  0  0  0  0  0  0  0  0  0  0  0
  137.2650  139.4840  153.8580 H   0  0  0  0  0  0  0  0  0  0  0  0
  1 13  1  0  0  0  0
  1  3  1  0  0  0  0
  2  1  2  0  0  0  0
  3  4  1  0  0  0  0
  5  3  1  0  0  0  0
  5  6  1  0  0  0  0
  5 12  1  0  0  0  0
  6  7  1  0  0  0  0
  7  8  1  0  0  0  0
  8  9  1  0  0  0  0
 10  9  1  0  0  0  0
 11 12  1  0  0  0  0
 11 10  1  0  0  0  0
 13 16  1  0  0  0  0
 14 19  1  0  0  0  0
 15 16  1  0  0  0  0
 15 14  2  0  0  0  0
 16 17  2  0  0  0  0
 17 18  1  0  0  0  0
 19 18  2  0  0  0  0
 19 22  1  0  0  0  0
 20 21  1  0  0  0  0
 21 14  1  0  0  0  0
 23 22  1  0  0  0  0
M  END
>  <MODEL>
6

>  <REMARK>
 VINA RESULT:    -6.975      2.189      3.496
 INTER + INTRA:          -9.080
 INTER:                  -8.567
 INTRA:                  -0.512
 UNBOUND:                -0.269
  Name = CHEMBL86481
  6 active torsions:
  status: ('A' for Active; 'I' for Inactive)
    1  A    between atoms: C_1  and  O_2
    2  A    between atoms: O_2  and  C_3
    3  A    between atoms: C_5  and  C_6
    4  A    between atoms: C_6  and  C_7
    5  A    between atoms: N_9  and  C_10
    6  A    between atoms: C_20  and  O_21
                            x       y       z     vdW  Elec       q    Type
                         _______ _______ _______ _____ _____    ______ ____

>  <TORSDO>
F 5

>  <SCORE>
-6.975

>  <RMSD_LB>
2.189

>  <RMSD_UB>
3.496

$$$$
CHEMBL86481
 OpenBabel10172500423D

 23 24  0  0  0  0  0  0  0  0999 V2000
  140.0720  137.5680  149.8190 C   0  0  0  0  0  0  0  0  0  0  0  0
  139.7390  138.6020  149.2470 O   0  0  0  0  0  0  0  0  0  0  0  0
  139.2570  136.4630  149.9490 N   0  0  0  0  0  0  0  0  0  0  0  0
  139.6330  135.6730  150.4000 H   0  0  0  0  0  0  0  0  0  0  0  0
  137.8700  136.3740  149.4630 C   0  0  0  0  0  3  0  0  0  0  0  0
  136.8800  137.0630  150.4170 C   0  0  0  0  0  2  0  0  0  0  0  0
  136.8070  136.4170  151.8030 C   0  0  0  0  0  2  0  0  0  0  0  0
  135.5430  135.6050  152.0820 C   0  0  0  0  0  2  0  0  0  0  0  0
  135.3100  134.3590  151.2230 C   0  0  0  0  0  2  0  0  0  0  0  0
  134.9910  134.6420  149.7550 C   0  0  0  0  0  2  0  0  0  0  0  0
  136.1530  134.5090  148.7630 C   0  0  0  0  0  2  0  0  0  0  0  0
  137.5620  134.8880  149.2140 C   0  0  0  0  0  2  0  0  0  0  0  0
  141.4320  137.4190  150.4910 C   0  0  0  0  0  2  0  0  0  0  0  0
  140.4150  138.6730  153.9820 C   0  0  0  0  0  0  0  0  0  0  0  0
  140.3530  138.3150  152.6270 C   0  0  0  0  0  3  0  0  0  0  0  0
  141.4530  137.7250  151.9800 C   0  0  0  0  0  0  0  0  0  0  0  0
  142.6300  137.5150  152.7110 C   0  0  0  0  0  3  0  0  0  0  0  0
  142.7050  137.8690  154.0640 C   0  0  0  0  0  3  0  0  0  0  0  0
  141.5980  138.4400  154.6930 C   0  0  0  0  0  0  0  0  0  0  0  0
  138.2000  138.5110  154.8540 C   0  0  0  0  0  1  0  0  0  0  0  0
  139.3930  139.2620  154.6830 O   0  0  0  0  0  0  0  0  0  0  0  0
  141.6800  138.8050  156.0100 O   0  0  0  0  0  0  0  0  0  0  0  0
  140.9920  139.3070  156.4000 H   0  0  0  0  0  0  0  0  0  0  0  0
  1  3  1  0  0  0  0
  1 13  1  0  0  0  0
  2  1  2  0  0  0  0
  3  4  1  0  0  0  0
  5  3  1  0  0  0  0
  5  6  1  0  0  0  0
  6  7  1  0  0  0  0
  7  8  1  0  0  0  0
  9  8  1  0  0  0  0
 10  9  1  0  0  0  0
 11 12  1  0  0  0  0
 11 10  1  0  0  0  0
 12  5  1  0  0  0  0
 13 16  1  0  0  0  0
 14 21  1  0  0  0  0
 14 19  1  0  0  0  0
 15 14  2  0  0  0  0
 16 15  1  0  0  0  0
 16 17  2  0  0  0  0
 17 18  1  0  0  0  0
 18 19  2  0  0  0  0
 19 22  1  0  0  0  0
 21 20  1  0  0  0  0
 22 23  1  0  0  0  0
M  END
>  <MODEL>
7

>  <REMARK>
 VINA RESULT:    -6.915      4.482      8.539
 INTER + INTRA:          -9.003
 INTER:                  -8.302
 INTRA:                  -0.701
 UNBOUND:                -0.269
  Name = CHEMBL86481
  6 active torsions:
  status: ('A' for Active; 'I' for Inactive)
    1  A    between atoms: C_1  and  O_2
    2  A    between atoms: O_2  and  C_3
    3  A    between atoms: C_5  and  C_6
    4  A    between atoms: C_6  and  C_7
    5  A    between atoms: N_9  and  C_10
    6  A    between atoms: C_20  and  O_21
                            x       y       z     vdW  Elec       q    Type
                         _______ _______ _______ _____ _____    ______ ____

>  <TORSDO>
F 5

>  <SCORE>
-6.915

>  <RMSD_LB>
4.482

>  <RMSD_UB>
8.539

$$$$
CHEMBL86481
 OpenBabel10172500423D

 23 24  0  0  0  0  0  0  0  0999 V2000
  143.3480  138.3960  150.7140 C   0  0  0  0  0  0  0  0  0  0  0  0
  142.9470  139.4970  150.3450 O   0  0  0  0  0  0  0  0  0  0  0  0
  144.6800  138.0600  150.8270 N   0  0  0  0  0  0  0  0  0  0  0  0
  144.8940  137.1590  151.1620 H   0  0  0  0  0  0  0  0  0  0  0  0
  145.8070  138.9440  150.4880 C   0  0  0  0  0  3  0  0  0  0  0  0
  146.4130  139.6120  151.7340 C   0  0  0  0  0  2  0  0  0  0  0  0
  145.4450  140.5440  152.4670 C   0  0  0  0  0  2  0  0  0  0  0  0
  145.7220  142.0370  152.3020 C   0  0  0  0  0  2  0  0  0  0  0  0
  145.5940  142.6190  150.8920 C   0  0  0  0  0  2  0  0  0  0  0  0
  146.6660  142.1540  149.9060 C   0  0  0  0  0  2  0  0  0  0  0  0
  146.2710  141.0250  148.9460 C   0  0  0  0  0  2  0  0  0  0  0  0
  145.3070  139.9430  149.4290 C   0  0  0  0  0  2  0  0  0  0  0  0
  142.3900  137.2600  151.0490 C   0  0  0  0  0  2  0  0  0  0  0  0
  140.1650  138.3160  154.0040 C   0  0  0  0  0  0  0  0  0  0  0  0
  141.2980  138.0340  153.2260 C   0  0  0  0  0  3  0  0  0  0  0  0
  141.1780  137.6610  151.8760 C   0  0  0  0  0  0  0  0  0  0  0  0
  139.8970  137.5550  151.3180 C   0  0  0  0  0  3  0  0  0  0  0  0
  138.7580  137.8350  152.0850 C   0  0  0  0  0  3  0  0  0  0  0  0
  138.8970  138.2170  153.4180 C   0  0  0  0  0  0  0  0  0  0  0  0
  140.5080  137.6630  156.2730 C   0  0  0  0  0  1  0  0  0  0  0  0
  140.1950  138.6750  155.3280 O   0  0  0  0  0  0  0  0  0  0  0  0
  137.7830  138.4690  154.1720 O   0  0  0  0  0  0  0  0  0  0  0  0
  136.9320  138.4000  153.7880 H   0  0  0  0  0  0  0  0  0  0  0  0
  1  3  1  0  0  0  0
  1 13  1  0  0  0  0
  2  1  2  0  0  0  0
  3  4  1  0  0  0  0
  5  3  1  0  0  0  0
  5  6  1  0  0  0  0
  6  7  1  0  0  0  0
  8  7  1  0  0  0  0
  9  8  1  0  0  0  0
 10  9  1  0  0  0  0
 11 12  1  0  0  0  0
 11 10  1  0  0  0  0
 12  5  1  0  0  0  0
 13 16  1  0  0  0  0
 14 21  1  0  0  0  0
 15 14  2  0  0  0  0
 16 15  1  0  0  0  0
 17 16  2  0  0  0  0
 17 18  1  0  0  0  0
 18 19  2  0  0  0  0
 19 14  1  0  0  0  0
 19 22  1  0  0  0  0
 21 20  1  0  0  0  0
 23 22  1  0  0  0  0
M  END
>  <MODEL>
8

>  <REMARK>
 VINA RESULT:    -6.863      2.064      2.734
 INTER + INTRA:          -8.938
 INTER:                  -9.224
 INTRA:                   0.286
 UNBOUND:                -0.269
  Name = CHEMBL86481
  6 active torsions:
  status: ('A' for Active; 'I' for Inactive)
    1  A    between atoms: C_1  and  O_2
    2  A    between atoms: O_2  and  C_3
    3  A    between atoms: C_5  and  C_6
    4  A    between atoms: C_6  and  C_7
    5  A    between atoms: N_9  and  C_10
    6  A    between atoms: C_20  and  O_21
                            x       y       z     vdW  Elec       q    Type
                         _______ _______ _______ _____ _____    ______ ____

>  <TORSDO>
F 5

>  <SCORE>
-6.863

>  <RMSD_LB>
2.064

>  <RMSD_UB>
2.734

$$$$
CHEMBL86481
 OpenBabel10172500423D

 23 24  0  0  0  0  0  0  0  0999 V2000
  134.0180  134.6840  151.5990 C   0  0  0  0  0  0  0  0  0  0  0  0
  132.9190  134.8150  152.1320 O   0  0  0  0  0  0  0  0  0  0  0  0
  134.2600  134.9240  150.2630 N   0  0  0  0  0  0  0  0  0  0  0  0
  135.1850  134.8170  149.9440 H   0  0  0  0  0  0  0  0  0  0  0  0
  133.2430  135.3280  149.2790 C   0  0  0  0  0  3  0  0  0  0  0  0
  132.9600  134.2190  148.2510 C   0  0  0  0  0  2  0  0  0  0  0  0
  134.1680  133.8630  147.3800 C   0  0  0  0  0  2  0  0  0  0  0  0
  134.0990  134.3540  145.9350 C   0  0  0  0  0  2  0  0  0  0  0  0
  134.0810  135.8690  145.7130 C   0  0  0  0  0  2  0  0  0  0  0  0
  132.8020  136.5690  146.1740 C   0  0  0  0  0  2  0  0  0  0  0  0
  132.8560  137.2640  147.5400 C   0  0  0  0  0  2  0  0  0  0  0  0
  133.7080  136.6530  148.6510 C   0  0  0  0  0  2  0  0  0  0  0  0
  135.2350  134.1920  152.3730 C   0  0  0  0  0  2  0  0  0  0  0  0
  136.5710  136.0960  155.4360 C   0  0  0  0  0  0  0  0  0  0  0  0
  136.3980  135.6540  154.1160 C   0  0  0  0  0  3  0  0  0  0  0  0
  135.3740  134.7510  153.7800 C   0  0  0  0  0  0  0  0  0  0  0  0
  134.5330  134.2790  154.7960 C   0  0  0  0  0  3  0  0  0  0  0  0
  134.6960  134.7120  156.1190 C   0  0  0  0  0  3  0  0  0  0  0  0
  135.7080  135.6200  156.4310 C   0  0  0  0  0  0  0  0  0  0  0  0
  137.3980  138.3330  155.4990 C   0  0  0  0  0  1  0  0  0  0  0  0
  137.5490  136.9650  155.8490 O   0  0  0  0  0  0  0  0  0  0  0  0
  135.8800  136.0250  157.7270 O   0  0  0  0  0  0  0  0  0  0  0  0
  135.7820  135.4110  158.4270 H   0  0  0  0  0  0  0  0  0  0  0  0
  1  2  2  0  0  0  0
  1 13  1  0  0  0  0
  3  1  1  0  0  0  0
  4  3  1  0  0  0  0
  5  3  1  0  0  0  0
  6  5  1  0  0  0  0
  7  6  1  0  0  0  0
  8  7  1  0  0  0  0
  9  8  1  0  0  0  0
  9 10  1  0  0  0  0
 10 11  1  0  0  0  0
 11 12  1  0  0  0  0
 12  5  1  0  0  0  0
 13 16  1  0  0  0  0
 14 21  1  0  0  0  0
 14 19  1  0  0  0  0
 15 14  2  0  0  0  0
 16 15  1  0  0  0  0
 16 17  2  0  0  0  0
 17 18  1  0  0  0  0
 18 19  2  0  0  0  0
 19 22  1  0  0  0  0
 20 21  1  0  0  0  0
 22 23  1  0  0  0  0
M  END
>  <MODEL>
9

>  <REMARK>
 VINA RESULT:    -6.811      8.486     11.784
 INTER + INTRA:          -8.872
 INTER:                  -8.602
 INTRA:                  -0.269
 UNBOUND:                -0.269
  Name = CHEMBL86481
  6 active torsions:
  status: ('A' for Active; 'I' for Inactive)
    1  A    between atoms: C_1  and  O_2
    2  A    between atoms: O_2  and  C_3
    3  A    between atoms: C_5  and  C_6
    4  A    between atoms: C_6  and  C_7
    5  A    between atoms: N_9  and  C_10
    6  A    between atoms: C_20  and  O_21
                            x       y       z     vdW  Elec       q    Type
                         _______ _______ _______ _____ _____    ______ ____

>  <TORSDO>
F 5

>  <SCORE>
-6.811

>  <RMSD_LB>
8.486

>  <RMSD_UB>
11.784

$$$$
