CHEMBL317352
 OpenBabel10162523563D

 30 31  0  0  1  0  0  0  0  0999 V2000
  133.8300  135.3530  153.1460 C   0  0  0  0  0  2  0  0  0  0  0  0
  133.4410  134.3440  152.1730 N   0  0  0  0  0  0  0  0  0  0  0  0
  132.7470  134.7560  151.0450 C   0  0  0  0  0  0  0  0  0  0  0  0
  132.4320  135.9280  150.8480 O   0  0  0  0  0  0  0  0  0  0  0  0
  133.6640  133.3950  152.3110 H   0  0  0  0  0  0  0  0  0  0  0  0
  132.3750  133.6570  150.0700 C   0  0  0  0  0  2  0  0  0  0  0  0
  133.2440  133.5910  148.8390 C   0  0  0  0  0  0  0  0  0  0  0  0
  134.2360  132.6140  148.7000 C   0  0  0  0  0  3  0  0  0  0  0  0
  135.0830  132.6220  147.5870 C   0  0  0  0  0  3  0  0  0  0  0  0
  134.9420  133.6000  146.5970 C   0  0  0  0  0  0  0  0  0  0  0  0
  133.9410  134.5720  146.7040 C   0  0  0  0  0  0  0  0  0  0  0  0
  133.1050  134.5540  147.8310 C   0  0  0  0  0  3  0  0  0  0  0  0
  135.8120  133.5840  145.5420 O   0  0  0  0  0  0  0  0  0  0  0  0
  135.6840  134.1690  144.8210 H   0  0  0  0  0  0  0  0  0  0  0  0
  133.6460  135.5940  145.8430 O   0  0  0  0  0  0  0  0  0  0  0  0
  133.6770  136.9220  146.3460 C   0  0  0  0  0  1  0  0  0  0  0  0
  135.3180  135.7820  153.1520 C   0  0  2  0  0  3  0  0  0  0  0  0
  136.0830  136.1090  150.7700 C   0  0  0  0  0  3  0  0  0  0  0  0
  136.0280  135.3530  151.8790 C   0  0  0  0  0  3  0  0  0  0  0  0
  136.7420  135.6340  149.5300 C   0  0  0  0  0  0  0  0  0  0  0  0
  137.4560  134.6550  149.4350 O   0  0  0  0  0  0  0  0  0  0  0  0
  137.2400  136.4360  147.3900 C   0  0  0  0  0  1  0  0  0  0  0  0
  136.3800  136.4790  148.5310 O   0  0  0  0  0  0  0  0  0  0  0  0
  135.9670  135.1550  154.4230 C   0  0  0  0  0  2  0  0  0  0  0  0
  136.7150  136.0810  155.3570 C   0  0  0  0  0  0  0  0  0  0  0  0
  136.6360  135.9390  156.7490 C   0  0  0  0  0  3  0  0  0  0  0  0
  137.3320  136.8120  157.5920 C   0  0  0  0  0  3  0  0  0  0  0  0
  138.1420  137.8110  157.0550 C   0  0  0  0  0  3  0  0  0  0  0  0
  138.2740  137.9260  155.6760 C   0  0  0  0  0  3  0  0  0  0  0  0
  137.5640  137.0670  154.8320 C   0  0  0  0  0  3  0  0  0  0  0  0
  1 17  1  0  0  0  0
  2  5  1  0  0  0  0
  2  1  1  0  0  0  0
  3  2  1  0  0  0  0
  4  3  2  0  0  0  0
  6  3  1  0  0  0  0
  7  6  1  0  0  0  0
  8  7  1  0  0  0  0
  9  8  2  0  0  0  0
 10 11  2  0  0  0  0
 10  9  1  0  0  0  0
 11 12  1  0  0  0  0
 12  7  2  0  0  0  0
 13 10  1  0  0  0  0
 14 13  1  0  0  0  0
 15 16  1  0  0  0  0
 15 11  1  0  0  0  0
 17 19  1  6  0  0  0
 17 24  1  0  0  0  0
 18 19  2  0  0  0  0
 20 18  1  0  0  0  0
 21 20  2  0  0  0  0
 22 23  1  0  0  0  0
 23 20  1  0  0  0  0
 24 25  1  0  0  0  0
 25 26  1  0  0  0  0
 26 27  2  0  0  0  0
 28 27  1  0  0  0  0
 29 28  2  0  0  0  0
 30 25  2  0  0  0  0
 30 29  1  0  0  0  0
M  END
>  <MODEL>
1

>  <REMARK>
 VINA RESULT:    -7.373      0.000      0.000
 INTER + INTRA:         -13.258
 INTER:                 -11.502
 INTRA:                  -1.756
 UNBOUND:                -1.360
  Name = CHEMBL317352
  13 active torsions:
  status: ('A' for Active; 'I' for Inactive)
    1  A    between atoms: C_1  and  O_2
    2  A    between atoms: O_2  and  C_3
    3  A    between atoms: C_3  and  C_5
    4  A    between atoms: C_6  and  C_7
    5  A    between atoms: C_7  and  C_8
    6  A    between atoms: C_7  and  C_22
    7  A    between atoms: C_8  and  N_9
    8  A    between atoms: C_10  and  C_12
    9  A    between atoms: C_12  and  C_13
   10  A    between atoms: C_16  and  O_17
   11  A    between atoms: C_18  and  O_19
   12  A    between atoms: O_19  and  C_20
   13  A    between atoms: C_22  and  C_23
                            x       y       z     vdW  Elec       q    Type
                         _______ _______ _______ _____ _____    ______ ____

>  <TORSDO>
F 11

>  <SCORE>
-7.373

>  <RMSD_LB>
0.000

>  <RMSD_UB>
0.000

$$$$
CHEMBL317352
 OpenBabel10162523563D

 30 31  0  0  1  0  0  0  0  0999 V2000
  137.4580  136.7590  151.6490 C   0  0  0  0  0  2  0  0  0  0  0  0
  137.7450  136.1800  150.3450 N   0  0  0  0  0  0  0  0  0  0  0  0
  137.4290  136.9220  149.2170 C   0  0  0  0  0  0  0  0  0  0  0  0
  136.9020  138.0310  149.2750 O   0  0  0  0  0  0  0  0  0  0  0  0
  138.1520  135.2870  150.2670 H   0  0  0  0  0  0  0  0  0  0  0  0
  137.7570  136.2640  147.8910 C   0  0  0  0  0  2  0  0  0  0  0  0
  136.6550  135.4000  147.3310 C   0  0  0  0  0  0  0  0  0  0  0  0
  136.6480  134.0140  147.5250 C   0  0  0  0  0  3  0  0  0  0  0  0
  135.6600  133.2240  146.9290 C   0  0  0  0  0  3  0  0  0  0  0  0
  134.6630  133.8100  146.1410 C   0  0  0  0  0  0  0  0  0  0  0  0
  134.6370  135.1960  145.9550 C   0  0  0  0  0  0  0  0  0  0  0  0
  135.6410  135.9730  146.5530 C   0  0  0  0  0  3  0  0  0  0  0  0
  133.7360  132.9930  145.5560 O   0  0  0  0  0  0  0  0  0  0  0  0
  132.8760  132.9230  145.9230 H   0  0  0  0  0  0  0  0  0  0  0  0
  133.7490  135.9450  145.2330 O   0  0  0  0  0  0  0  0  0  0  0  0
  133.1520  137.0690  145.8650 C   0  0  0  0  0  1  0  0  0  0  0  0
  136.1590  136.2900  152.3510 C   0  0  2  0  0  3  0  0  0  0  0  0
  137.1140  137.2470  154.4820 C   0  0  0  0  0  3  0  0  0  0  0  0
  136.2690  136.4060  153.8620 C   0  0  0  0  0  3  0  0  0  0  0  0
  137.2280  137.2950  155.9590 C   0  0  0  0  0  0  0  0  0  0  0  0
  137.0550  138.2780  156.6530 O   0  0  0  0  0  0  0  0  0  0  0  0
  136.9560  135.6930  157.6410 C   0  0  0  0  0  1  0  0  0  0  0  0
  137.5350  136.0420  156.3820 O   0  0  0  0  0  0  0  0  0  0  0  0
  135.9000  134.8230  151.8940 C   0  0  0  0  0  2  0  0  0  0  0  0
  134.7730  134.5830  150.9140 C   0  0  0  0  0  0  0  0  0  0  0  0
  134.1480  135.6420  150.2420 C   0  0  0  0  0  3  0  0  0  0  0  0
  133.1030  135.3950  149.3450 C   0  0  0  0  0  3  0  0  0  0  0  0
  132.6960  134.0890  149.0820 C   0  0  0  0  0  3  0  0  0  0  0  0
  133.3460  133.0250  149.6990 C   0  0  0  0  0  3  0  0  0  0  0  0
  134.3770  133.2710  150.6090 C   0  0  0  0  0  3  0  0  0  0  0  0
  2  1  1  0  0  0  0
  3  4  2  0  0  0  0
  3  2  1  0  0  0  0
  5  2  1  0  0  0  0
  6  3  1  0  0  0  0
  7  8  1  0  0  0  0
  7  6  1  0  0  0  0
  9  8  2  0  0  0  0
 10  9  1  0  0  0  0
 11 10  2  0  0  0  0
 11 12  1  0  0  0  0
 12  7  2  0  0  0  0
 13 14  1  0  0  0  0
 13 10  1  0  0  0  0
 15 16  1  0  0  0  0
 15 11  1  0  0  0  0
 17  1  1  6  0  0  0
 17 19  1  0  0  0  0
 18 20  1  0  0  0  0
 19 18  2  0  0  0  0
 20 23  1  0  0  0  0
 20 21  2  0  0  0  0
 23 22  1  0  0  0  0
 24 17  1  0  0  0  0
 25 24  1  0  0  0  0
 26 25  2  0  0  0  0
 27 26  1  0  0  0  0
 28 27  2  0  0  0  0
 28 29  1  0  0  0  0
 29 30  2  0  0  0  0
 30 25  1  0  0  0  0
M  END
>  <MODEL>
2

>  <REMARK>
 VINA RESULT:    -7.262      2.559      5.634
 INTER + INTRA:         -13.080
 INTER:                 -10.381
 INTRA:                  -2.699
 UNBOUND:                -1.360
  Name = CHEMBL317352
  13 active torsions:
  status: ('A' for Active; 'I' for Inactive)
    1  A    between atoms: C_1  and  O_2
    2  A    between atoms: O_2  and  C_3
    3  A    between atoms: C_3  and  C_5
    4  A    between atoms: C_6  and  C_7
    5  A    between atoms: C_7  and  C_8
    6  A    between atoms: C_7  and  C_22
    7  A    between atoms: C_8  and  N_9
    8  A    between atoms: C_10  and  C_12
    9  A    between atoms: C_12  and  C_13
   10  A    between atoms: C_16  and  O_17
   11  A    between atoms: C_18  and  O_19
   12  A    between atoms: O_19  and  C_20
   13  A    between atoms: C_22  and  C_23
                            x       y       z     vdW  Elec       q    Type
                         _______ _______ _______ _____ _____    ______ ____

>  <TORSDO>
F 11

>  <SCORE>
-7.262

>  <RMSD_LB>
2.559

>  <RMSD_UB>
5.634

$$$$
CHEMBL317352
 OpenBabel10162523563D

 30 31  0  0  1  0  0  0  0  0999 V2000
  142.2000  137.7970  153.7850 C   0  0  0  0  0  2  0  0  0  0  0  0
  143.1730  138.5340  154.5770 N   0  0  0  0  0  0  0  0  0  0  0  0
  144.4950  138.5280  154.1580 C   0  0  0  0  0  0  0  0  0  0  0  0
  144.8770  137.9150  153.1640 O   0  0  0  0  0  0  0  0  0  0  0  0
  142.9000  139.0210  155.3870 H   0  0  0  0  0  0  0  0  0  0  0  0
  145.4570  139.3170  155.0250 C   0  0  0  0  0  2  0  0  0  0  0  0
  146.5550  140.0180  154.2660 C   0  0  0  0  0  0  0  0  0  0  0  0
  147.9040  139.7650  154.5380 C   0  0  0  0  0  3  0  0  0  0  0  0
  148.9040  140.4850  153.8780 C   0  0  0  0  0  3  0  0  0  0  0  0
  148.5680  141.4600  152.9320 C   0  0  0  0  0  0  0  0  0  0  0  0
  147.2260  141.7110  152.6270 C   0  0  0  0  0  0  0  0  0  0  0  0
  146.2350  140.9850  153.3040 C   0  0  0  0  0  3  0  0  0  0  0  0
  149.5800  142.1580  152.3340 O   0  0  0  0  0  0  0  0  0  0  0  0
  150.4690  141.8820  152.4460 H   0  0  0  0  0  0  0  0  0  0  0  0
  146.7060  142.6100  151.7350 O   0  0  0  0  0  0  0  0  0  0  0  0
  146.5510  142.1990  150.3850 C   0  0  0  0  0  1  0  0  0  0  0  0
  140.9380  138.5730  153.3290 C   0  0  2  0  0  3  0  0  0  0  0  0
  138.7300  138.0470  154.4320 C   0  0  0  0  0  3  0  0  0  0  0  0
  139.9150  138.6800  154.4480 C   0  0  0  0  0  3  0  0  0  0  0  0
  137.7380  138.2160  155.5200 C   0  0  0  0  0  0  0  0  0  0  0  0
  136.9100  139.1030  155.5960 O   0  0  0  0  0  0  0  0  0  0  0  0
  137.8620  137.5750  157.7660 C   0  0  0  0  0  1  0  0  0  0  0  0
  137.9150  137.1890  156.3910 O   0  0  0  0  0  0  0  0  0  0  0  0
  140.3700  137.8250  152.0850 C   0  0  0  0  0  2  0  0  0  0  0  0
  139.5460  138.6270  151.1020 C   0  0  0  0  0  0  0  0  0  0  0  0
  139.9050  139.9300  150.7350 C   0  0  0  0  0  3  0  0  0  0  0  0
  139.1230  140.6540  149.8290 C   0  0  0  0  0  3  0  0  0  0  0  0
  137.9940  140.0720  149.2530 C   0  0  0  0  0  3  0  0  0  0  0  0
  137.6590  138.7590  149.5660 C   0  0  0  0  0  3  0  0  0  0  0  0
  138.4280  138.0420  150.4850 C   0  0  0  0  0  3  0  0  0  0  0  0
  1  2  1  0  0  0  0
  2  5  1  0  0  0  0
  3  2  1  0  0  0  0
  3  6  1  0  0  0  0
  4  3  2  0  0  0  0
  7  8  1  0  0  0  0
  7  6  1  0  0  0  0
  9  8  2  0  0  0  0
 10  9  1  0  0  0  0
 11 10  2  0  0  0  0
 11 12  1  0  0  0  0
 12  7  2  0  0  0  0
 13 14  1  0  0  0  0
 13 10  1  0  0  0  0
 15 11  1  0  0  0  0
 16 15  1  0  0  0  0
 17 24  1  6  0  0  0
 17  1  1  0  0  0  0
 17 19  1  0  0  0  0
 18 19  2  0  0  0  0
 18 20  1  0  0  0  0
 20 21  2  0  0  0  0
 20 23  1  0  0  0  0
 23 22  1  0  0  0  0
 25 24  1  0  0  0  0
 26 25  1  0  0  0  0
 27 26  2  0  0  0  0
 28 29  2  0  0  0  0
 28 27  1  0  0  0  0
 29 30  1  0  0  0  0
 30 25  2  0  0  0  0
M  END
>  <MODEL>
3

>  <REMARK>
 VINA RESULT:    -7.032      7.681     11.697
 INTER + INTRA:         -12.708
 INTER:                 -11.724
 INTRA:                  -0.984
 UNBOUND:                -1.360
  Name = CHEMBL317352
  13 active torsions:
  status: ('A' for Active; 'I' for Inactive)
    1  A    between atoms: C_1  and  O_2
    2  A    between atoms: O_2  and  C_3
    3  A    between atoms: C_3  and  C_5
    4  A    between atoms: C_6  and  C_7
    5  A    between atoms: C_7  and  C_8
    6  A    between atoms: C_7  and  C_22
    7  A    between atoms: C_8  and  N_9
    8  A    between atoms: C_10  and  C_12
    9  A    between atoms: C_12  and  C_13
   10  A    between atoms: C_16  and  O_17
   11  A    between atoms: C_18  and  O_19
   12  A    between atoms: O_19  and  C_20
   13  A    between atoms: C_22  and  C_23
                            x       y       z     vdW  Elec       q    Type
                         _______ _______ _______ _____ _____    ______ ____

>  <TORSDO>
F 11

>  <SCORE>
-7.032

>  <RMSD_LB>
7.681

>  <RMSD_UB>
11.697

$$$$
CHEMBL317352
 OpenBabel10162523563D

 30 31  0  0  1  0  0  0  0  0999 V2000
  144.4450  140.7550  150.3650 C   0  0  0  0  0  2  0  0  0  0  0  0
  143.8400  139.4410  150.5130 N   0  0  0  0  0  0  0  0  0  0  0  0
  143.5860  138.9790  151.7970 C   0  0  0  0  0  0  0  0  0  0  0  0
  143.8690  139.6230  152.8050 O   0  0  0  0  0  0  0  0  0  0  0  0
  143.6170  138.8950  149.7250 H   0  0  0  0  0  0  0  0  0  0  0  0
  142.9520  137.6040  151.8810 C   0  0  0  0  0  2  0  0  0  0  0  0
  141.4590  137.5890  151.6660 C   0  0  0  0  0  0  0  0  0  0  0  0
  140.5740  137.9530  152.6870 C   0  0  0  0  0  3  0  0  0  0  0  0
  139.1930  137.8540  152.4910 C   0  0  0  0  0  3  0  0  0  0  0  0
  138.6810  137.4000  151.2710 C   0  0  0  0  0  0  0  0  0  0  0  0
  139.5480  137.0550  150.2290 C   0  0  0  0  0  0  0  0  0  0  0  0
  140.9310  137.1520  150.4450 C   0  0  0  0  0  3  0  0  0  0  0  0
  137.3240  137.2930  151.1370 O   0  0  0  0  0  0  0  0  0  0  0  0
  136.7640  137.5290  151.8500 H   0  0  0  0  0  0  0  0  0  0  0  0
  139.2400  136.6020  148.9740 O   0  0  0  0  0  0  0  0  0  0  0  0
  138.9990  137.5620  147.9560 C   0  0  0  0  0  1  0  0  0  0  0  0
  145.7010  140.8500  149.4620 C   0  0  2  0  0  3  0  0  0  0  0  0
  146.6540  138.7880  148.3620 C   0  0  0  0  0  3  0  0  0  0  0  0
  146.4830  139.5470  149.4570 C   0  0  0  0  0  3  0  0  0  0  0  0
  147.3810  137.4980  148.4090 C   0  0  0  0  0  0  0  0  0  0  0  0
  148.1510  137.0850  147.5640 O   0  0  0  0  0  0  0  0  0  0  0  0
  147.9730  135.8860  149.9970 C   0  0  0  0  0  1  0  0  0  0  0  0
  147.0450  136.8860  149.5740 O   0  0  0  0  0  0  0  0  0  0  0  0
  146.5530  142.0420  149.9920 C   0  0  0  0  0  2  0  0  0  0  0  0
  147.0400  141.9750  151.4220 C   0  0  0  0  0  0  0  0  0  0  0  0
  146.1760  142.2010  152.5020 C   0  0  0  0  0  3  0  0  0  0  0  0
  146.6510  142.1410  153.8160 C   0  0  0  0  0  3  0  0  0  0  0  0
  147.9840  141.8190  154.0670 C   0  0  0  0  0  3  0  0  0  0  0  0
  148.8380  141.5360  153.0070 C   0  0  0  0  0  3  0  0  0  0  0  0
  148.3690  141.6150  151.6930 C   0  0  0  0  0  3  0  0  0  0  0  0
  1  2  1  0  0  0  0
  2  3  1  0  0  0  0
  3  6  1  0  0  0  0
  3  4  2  0  0  0  0
  5  2  1  0  0  0  0
  7  6  1  0  0  0  0
  7  8  1  0  0  0  0
  9  8  2  0  0  0  0
 10  9  1  0  0  0  0
 11 12  1  0  0  0  0
 11 10  2  0  0  0  0
 12  7  2  0  0  0  0
 13 10  1  0  0  0  0
 13 14  1  0  0  0  0
 15 11  1  0  0  0  0
 16 15  1  0  0  0  0
 17 19  1  1  0  0  0
 17 24  1  0  0  0  0
 17  1  1  0  0  0  0
 18 20  1  0  0  0  0
 18 19  2  0  0  0  0
 20 23  1  0  0  0  0
 21 20  2  0  0  0  0
 23 22  1  0  0  0  0
 24 25  1  0  0  0  0
 25 30  2  0  0  0  0
 25 26  1  0  0  0  0
 26 27  2  0  0  0  0
 27 28  1  0  0  0  0
 29 28  2  0  0  0  0
 30 29  1  0  0  0  0
M  END
>  <MODEL>
4

>  <REMARK>
 VINA RESULT:    -7.007      8.455     10.589
 INTER + INTRA:         -12.667
 INTER:                 -11.755
 INTRA:                  -0.912
 UNBOUND:                -1.360
  Name = CHEMBL317352
  13 active torsions:
  status: ('A' for Active; 'I' for Inactive)
    1  A    between atoms: C_1  and  O_2
    2  A    between atoms: O_2  and  C_3
    3  A    between atoms: C_3  and  C_5
    4  A    between atoms: C_6  and  C_7
    5  A    between atoms: C_7  and  C_8
    6  A    between atoms: C_7  and  C_22
    7  A    between atoms: C_8  and  N_9
    8  A    between atoms: C_10  and  C_12
    9  A    between atoms: C_12  and  C_13
   10  A    between atoms: C_16  and  O_17
   11  A    between atoms: C_18  and  O_19
   12  A    between atoms: O_19  and  C_20
   13  A    between atoms: C_22  and  C_23
                            x       y       z     vdW  Elec       q    Type
                         _______ _______ _______ _____ _____    ______ ____

>  <TORSDO>
F 11

>  <SCORE>
-7.007

>  <RMSD_LB>
8.455

>  <RMSD_UB>
10.589

$$$$
CHEMBL317352
 OpenBabel10162523563D

 30 31  0  0  1  0  0  0  0  0999 V2000
  137.9520  137.0220  150.6780 C   0  0  0  0  0  2  0  0  0  0  0  0
  137.9550  136.3190  149.4050 N   0  0  0  0  0  0  0  0  0  0  0  0
  137.5660  137.0180  148.2710 C   0  0  0  0  0  0  0  0  0  0  0  0
  137.2030  138.1920  148.3040 O   0  0  0  0  0  0  0  0  0  0  0  0
  138.2240  135.3740  149.3500 H   0  0  0  0  0  0  0  0  0  0  0  0
  137.5950  136.2280  146.9770 C   0  0  0  0  0  2  0  0  0  0  0  0
  136.3960  135.3400  146.7590 C   0  0  0  0  0  0  0  0  0  0  0  0
  135.1070  135.8720  146.6500 C   0  0  0  0  0  3  0  0  0  0  0  0
  134.0010  135.0240  146.5290 C   0  0  0  0  0  3  0  0  0  0  0  0
  134.1730  133.6350  146.5060 C   0  0  0  0  0  0  0  0  0  0  0  0
  135.4560  133.0830  146.5890 C   0  0  0  0  0  0  0  0  0  0  0  0
  136.5530  133.9480  146.7180 C   0  0  0  0  0  3  0  0  0  0  0  0
  133.0600  132.8460  146.4160 O   0  0  0  0  0  0  0  0  0  0  0  0
  132.2920  133.0630  146.9070 H   0  0  0  0  0  0  0  0  0  0  0  0
  135.8210  131.7640  146.5770 O   0  0  0  0  0  0  0  0  0  0  0  0
  136.5260  131.2760  145.4440 C   0  0  0  0  0  1  0  0  0  0  0  0
  136.8220  136.6600  151.6740 C   0  0  2  0  0  3  0  0  0  0  0  0
  136.6500  136.3120  154.1680 C   0  0  0  0  0  3  0  0  0  0  0  0
  137.2540  136.8850  153.1140 C   0  0  0  0  0  3  0  0  0  0  0  0
  137.0700  136.5960  155.5610 C   0  0  0  0  0  0  0  0  0  0  0  0
  138.1840  136.9330  155.9130 O   0  0  0  0  0  0  0  0  0  0  0  0
  136.1930  135.5610  157.4660 C   0  0  0  0  0  1  0  0  0  0  0  0
  135.9800  136.4320  156.3530 O   0  0  0  0  0  0  0  0  0  0  0  0
  136.4360  135.1740  151.4040 C   0  0  0  0  0  2  0  0  0  0  0  0
  135.0630  134.9000  150.8330 C   0  0  0  0  0  0  0  0  0  0  0  0
  134.6010  133.5930  150.6300 C   0  0  0  0  0  3  0  0  0  0  0  0
  133.3300  133.3640  150.0930 C   0  0  0  0  0  3  0  0  0  0  0  0
  132.4920  134.4350  149.7880 C   0  0  0  0  0  3  0  0  0  0  0  0
  132.9160  135.7360  150.0390 C   0  0  0  0  0  3  0  0  0  0  0  0
  134.1930  135.9670  150.5560 C   0  0  0  0  0  3  0  0  0  0  0  0
  2  1  1  0  0  0  0
  3  4  2  0  0  0  0
  3  2  1  0  0  0  0
  5  2  1  0  0  0  0
  6  3  1  0  0  0  0
  7  6  1  0  0  0  0
  8  7  2  0  0  0  0
  9  8  1  0  0  0  0
 10  9  2  0  0  0  0
 10 11  1  0  0  0  0
 11 12  2  0  0  0  0
 12  7  1  0  0  0  0
 13 10  1  0  0  0  0
 13 14  1  0  0  0  0
 15 11  1  0  0  0  0
 16 15  1  0  0  0  0
 17  1  1  6  0  0  0
 17 19  1  0  0  0  0
 18 20  1  0  0  0  0
 19 18  2  0  0  0  0
 20 21  2  0  0  0  0
 20 23  1  0  0  0  0
 23 22  1  0  0  0  0
 24 17  1  0  0  0  0
 25 24  1  0  0  0  0
 26 25  1  0  0  0  0
 27 26  2  0  0  0  0
 28 29  2  0  0  0  0
 28 27  1  0  0  0  0
 29 30  1  0  0  0  0
 30 25  2  0  0  0  0
M  END
>  <MODEL>
5

>  <REMARK>
 VINA RESULT:    -6.996      2.572      5.765
 INTER + INTRA:         -12.650
 INTER:                 -10.208
 INTRA:                  -2.442
 UNBOUND:                -1.360
  Name = CHEMBL317352
  13 active torsions:
  status: ('A' for Active; 'I' for Inactive)
    1  A    between atoms: C_1  and  O_2
    2  A    between atoms: O_2  and  C_3
    3  A    between atoms: C_3  and  C_5
    4  A    between atoms: C_6  and  C_7
    5  A    between atoms: C_7  and  C_8
    6  A    between atoms: C_7  and  C_22
    7  A    between atoms: C_8  and  N_9
    8  A    between atoms: C_10  and  C_12
    9  A    between atoms: C_12  and  C_13
   10  A    between atoms: C_16  and  O_17
   11  A    between atoms: C_18  and  O_19
   12  A    between atoms: O_19  and  C_20
   13  A    between atoms: C_22  and  C_23
                            x       y       z     vdW  Elec       q    Type
                         _______ _______ _______ _____ _____    ______ ____

>  <TORSDO>
F 11

>  <SCORE>
-6.996

>  <RMSD_LB>
2.572

>  <RMSD_UB>
5.765

$$$$
CHEMBL317352
 OpenBabel10162523563D

 30 31  0  0  1  0  0  0  0  0999 V2000
  142.0640  139.6390  150.7550 C   0  0  0  0  0  2  0  0  0  0  0  0
  143.4100  140.1920  150.7750 N   0  0  0  0  0  0  0  0  0  0  0  0
  144.0960  140.2840  149.5730 C   0  0  0  0  0  0  0  0  0  0  0  0
  143.6240  139.9000  148.5050 O   0  0  0  0  0  0  0  0  0  0  0  0
  143.8210  140.4920  151.6170 H   0  0  0  0  0  0  0  0  0  0  0  0
  145.4910  140.8710  149.6620 C   0  0  0  0  0  2  0  0  0  0  0  0
  146.0370  140.9770  151.0640 C   0  0  0  0  0  0  0  0  0  0  0  0
  145.9170  142.1590  151.8040 C   0  0  0  0  0  3  0  0  0  0  0  0
  146.5020  142.2610  153.0700 C   0  0  0  0  0  3  0  0  0  0  0  0
  147.2050  141.1800  153.6140 C   0  0  0  0  0  0  0  0  0  0  0  0
  147.3170  139.9820  152.9020 C   0  0  0  0  0  0  0  0  0  0  0  0
  146.7310  139.8990  151.6300 C   0  0  0  0  0  3  0  0  0  0  0  0
  147.7840  141.3370  154.8430 O   0  0  0  0  0  0  0  0  0  0  0  0
  147.6820  140.6730  155.4970 H   0  0  0  0  0  0  0  0  0  0  0  0
  147.9510  138.8250  153.2670 O   0  0  0  0  0  0  0  0  0  0  0  0
  147.9090  137.7260  152.3680 C   0  0  0  0  0  1  0  0  0  0  0  0
  141.8770  138.2330  151.3800 C   0  0  2  0  0  3  0  0  0  0  0  0
  143.5330  136.5510  150.4870 C   0  0  0  0  0  3  0  0  0  0  0  0
  142.3250  137.1360  150.4280 C   0  0  0  0  0  3  0  0  0  0  0  0
  143.9510  135.5190  149.5090 C   0  0  0  0  0  0  0  0  0  0  0  0
  143.2310  134.6740  149.0150 O   0  0  0  0  0  0  0  0  0  0  0  0
  145.5570  136.9100  148.5310 C   0  0  0  0  0  1  0  0  0  0  0  0
  145.2720  135.7130  149.2580 O   0  0  0  0  0  0  0  0  0  0  0  0
  140.3710  138.1010  151.7580 C   0  0  0  0  0  2  0  0  0  0  0  0
  140.0200  138.0360  153.2280 C   0  0  0  0  0  0  0  0  0  0  0  0
  138.6930  137.9130  153.6600 C   0  0  0  0  0  3  0  0  0  0  0  0
  138.3930  137.8630  155.0250 C   0  0  0  0  0  3  0  0  0  0  0  0
  139.4160  137.8970  155.9720 C   0  0  0  0  0  3  0  0  0  0  0  0
  140.7410  137.9610  155.5540 C   0  0  0  0  0  3  0  0  0  0  0  0
  141.0410  138.0310  154.1910 C   0  0  0  0  0  3  0  0  0  0  0  0
  1  2  1  0  0  0  0
  1 17  1  0  0  0  0
  2  5  1  0  0  0  0
  3  6  1  0  0  0  0
  3  2  1  0  0  0  0
  4  3  2  0  0  0  0
  6  7  1  0  0  0  0
  7 12  2  0  0  0  0
  7  8  1  0  0  0  0
  8  9  2  0  0  0  0
  9 10  1  0  0  0  0
 10 13  1  0  0  0  0
 11 15  1  0  0  0  0
 11 10  2  0  0  0  0
 12 11  1  0  0  0  0
 13 14  1  0  0  0  0
 16 15  1  0  0  0  0
 17 19  1  6  0  0  0
 17 24  1  0  0  0  0
 19 18  2  0  0  0  0
 20 18  1  0  0  0  0
 21 20  2  0  0  0  0
 22 23  1  0  0  0  0
 23 20  1  0  0  0  0
 24 25  1  0  0  0  0
 25 26  2  0  0  0  0
 25 30  1  0  0  0  0
 26 27  1  0  0  0  0
 27 28  2  0  0  0  0
 29 28  1  0  0  0  0
 30 29  2  0  0  0  0
M  END
>  <MODEL>
6

>  <REMARK>
 VINA RESULT:    -6.950      7.933     11.177
 INTER + INTRA:         -12.575
 INTER:                 -11.219
 INTRA:                  -1.356
 UNBOUND:                -1.360
  Name = CHEMBL317352
  13 active torsions:
  status: ('A' for Active; 'I' for Inactive)
    1  A    between atoms: C_1  and  O_2
    2  A    between atoms: O_2  and  C_3
    3  A    between atoms: C_3  and  C_5
    4  A    between atoms: C_6  and  C_7
    5  A    between atoms: C_7  and  C_8
    6  A    between atoms: C_7  and  C_22
    7  A    between atoms: C_8  and  N_9
    8  A    between atoms: C_10  and  C_12
    9  A    between atoms: C_12  and  C_13
   10  A    between atoms: C_16  and  O_17
   11  A    between atoms: C_18  and  O_19
   12  A    between atoms: O_19  and  C_20
   13  A    between atoms: C_22  and  C_23
                            x       y       z     vdW  Elec       q    Type
                         _______ _______ _______ _____ _____    ______ ____

>  <TORSDO>
F 11

>  <SCORE>
-6.950

>  <RMSD_LB>
7.933

>  <RMSD_UB>
11.177

$$$$
CHEMBL317352
 OpenBabel10162523563D

 30 31  0  0  1  0  0  0  0  0999 V2000
  143.3260  139.5970  148.5360 C   0  0  0  0  0  2  0  0  0  0  0  0
  144.4230  140.4690  148.9270 N   0  0  0  0  0  0  0  0  0  0  0  0
  145.7030  139.9340  148.9620 C   0  0  0  0  0  0  0  0  0  0  0  0
  145.9400  138.7570  148.6980 O   0  0  0  0  0  0  0  0  0  0  0  0
  144.2620  141.4110  149.1610 H   0  0  0  0  0  0  0  0  0  0  0  0
  146.8000  140.8960  149.3740 C   0  0  0  0  0  2  0  0  0  0  0  0
  146.8790  141.1570  150.8570 C   0  0  0  0  0  0  0  0  0  0  0  0
  146.1100  142.1570  151.4620 C   0  0  0  0  0  3  0  0  0  0  0  0
  146.2600  142.4370  152.8240 C   0  0  0  0  0  3  0  0  0  0  0  0
  147.1720  141.7120  153.5990 C   0  0  0  0  0  0  0  0  0  0  0  0
  147.9330  140.6920  153.0200 C   0  0  0  0  0  0  0  0  0  0  0  0
  147.7770  140.4310  151.6510 C   0  0  0  0  0  3  0  0  0  0  0  0
  147.3030  142.0410  154.9200 O   0  0  0  0  0  0  0  0  0  0  0  0
  147.1730  141.3880  155.5790 H   0  0  0  0  0  0  0  0  0  0  0  0
  148.8620  139.8780  153.6100 O   0  0  0  0  0  0  0  0  0  0  0  0
  148.4090  138.9280  154.5650 C   0  0  0  0  0  1  0  0  0  0  0  0
  142.3660  139.1330  149.6610 C   0  0  2  0  0  3  0  0  0  0  0  0
  140.1050  138.6160  148.6670 C   0  0  0  0  0  3  0  0  0  0  0  0
  140.9190  139.4560  149.3270 C   0  0  0  0  0  3  0  0  0  0  0  0
  138.7140  138.9880  148.3160 C   0  0  0  0  0  0  0  0  0  0  0  0
  137.9930  138.3920  147.5400 O   0  0  0  0  0  0  0  0  0  0  0  0
  137.0990  140.6200  148.7580 C   0  0  0  0  0  1  0  0  0  0  0  0
  138.3970  140.0940  149.0380 O   0  0  0  0  0  0  0  0  0  0  0  0
  142.8340  139.8310  150.9740 C   0  0  0  0  0  2  0  0  0  0  0  0
  143.6290  139.0050  151.9610 C   0  0  0  0  0  0  0  0  0  0  0  0
  144.1340  137.7430  151.6220 C   0  0  0  0  0  3  0  0  0  0  0  0
  144.8600  136.9940  152.5550 C   0  0  0  0  0  3  0  0  0  0  0  0
  145.1210  137.5130  153.8220 C   0  0  0  0  0  3  0  0  0  0  0  0
  144.6760  138.7890  154.1510 C   0  0  0  0  0  3  0  0  0  0  0  0
  143.9340  139.5290  153.2270 C   0  0  0  0  0  3  0  0  0  0  0  0
  1  2  1  0  0  0  0
  2  3  1  0  0  0  0
  2  5  1  0  0  0  0
  3  6  1  0  0  0  0
  4  3  2  0  0  0  0
  6  7  1  0  0  0  0
  7  8  2  0  0  0  0
  7 12  1  0  0  0  0
  8  9  1  0  0  0  0
  9 10  2  0  0  0  0
 10 13  1  0  0  0  0
 11 10  1  0  0  0  0
 11 15  1  0  0  0  0
 12 11  2  0  0  0  0
 13 14  1  0  0  0  0
 15 16  1  0  0  0  0
 17  1  1  6  0  0  0
 17 24  1  0  0  0  0
 18 19  2  0  0  0  0
 19 17  1  0  0  0  0
 20 18  1  0  0  0  0
 20 23  1  0  0  0  0
 21 20  2  0  0  0  0
 22 23  1  0  0  0  0
 24 25  1  0  0  0  0
 25 30  1  0  0  0  0
 26 25  2  0  0  0  0
 26 27  1  0  0  0  0
 27 28  2  0  0  0  0
 28 29  1  0  0  0  0
 30 29  2  0  0  0  0
M  END
>  <MODEL>
7

>  <REMARK>
 VINA RESULT:    -6.852      8.553     12.054
 INTER + INTRA:         -12.418
 INTER:                 -10.192
 INTRA:                  -2.227
 UNBOUND:                -1.360
  Name = CHEMBL317352
  13 active torsions:
  status: ('A' for Active; 'I' for Inactive)
    1  A    between atoms: C_1  and  O_2
    2  A    between atoms: O_2  and  C_3
    3  A    between atoms: C_3  and  C_5
    4  A    between atoms: C_6  and  C_7
    5  A    between atoms: C_7  and  C_8
    6  A    between atoms: C_7  and  C_22
    7  A    between atoms: C_8  and  N_9
    8  A    between atoms: C_10  and  C_12
    9  A    between atoms: C_12  and  C_13
   10  A    between atoms: C_16  and  O_17
   11  A    between atoms: C_18  and  O_19
   12  A    between atoms: O_19  and  C_20
   13  A    between atoms: C_22  and  C_23
                            x       y       z     vdW  Elec       q    Type
                         _______ _______ _______ _____ _____    ______ ____

>  <TORSDO>
F 11

>  <SCORE>
-6.852

>  <RMSD_LB>
8.553

>  <RMSD_UB>
12.054

$$$$
CHEMBL317352
 OpenBabel10162523563D

 30 31  0  0  1  0  0  0  0  0999 V2000
  136.7600  136.4890  151.3520 C   0  0  0  0  0  2  0  0  0  0  0  0
  137.6590  137.4430  151.9830 N   0  0  0  0  0  0  0  0  0  0  0  0
  138.5790  138.1030  151.1810 C   0  0  0  0  0  0  0  0  0  0  0  0
  138.6780  137.8980  149.9730 O   0  0  0  0  0  0  0  0  0  0  0  0
  137.6150  137.6160  152.9510 H   0  0  0  0  0  0  0  0  0  0  0  0
  139.4830  139.0860  151.9000 C   0  0  0  0  0  2  0  0  0  0  0  0
  140.6890  138.4630  152.5560 C   0  0  0  0  0  0  0  0  0  0  0  0
  140.8220  138.4280  153.9490 C   0  0  0  0  0  3  0  0  0  0  0  0
  141.9860  137.9200  154.5340 C   0  0  0  0  0  3  0  0  0  0  0  0
  143.0250  137.4310  153.7350 C   0  0  0  0  0  0  0  0  0  0  0  0
  142.9020  137.4330  152.3410 C   0  0  0  0  0  0  0  0  0  0  0  0
  141.7320  137.9550  151.7710 C   0  0  0  0  0  3  0  0  0  0  0  0
  144.1550  136.9690  154.3520 O   0  0  0  0  0  0  0  0  0  0  0  0
  144.7900  136.4840  153.8630 H   0  0  0  0  0  0  0  0  0  0  0  0
  143.7980  136.9960  151.4030 O   0  0  0  0  0  0  0  0  0  0  0  0
  144.9240  137.8140  151.1210 C   0  0  0  0  0  1  0  0  0  0  0  0
  135.8430  135.6650  152.2910 C   0  0  2  0  0  3  0  0  0  0  0  0
  135.6790  136.2400  154.7420 C   0  0  0  0  0  3  0  0  0  0  0  0
  136.3520  135.6820  153.7230 C   0  0  0  0  0  3  0  0  0  0  0  0
  136.2320  136.2800  156.1170 C   0  0  0  0  0  0  0  0  0  0  0  0
  137.0420  137.0840  156.5340 O   0  0  0  0  0  0  0  0  0  0  0  0
  135.8780  135.3340  158.2260 C   0  0  0  0  0  1  0  0  0  0  0  0
  135.6490  135.2730  156.8170 O   0  0  0  0  0  0  0  0  0  0  0  0
  135.7780  134.2210  151.7100 C   0  0  0  0  0  2  0  0  0  0  0  0
  134.7480  133.9430  150.6370 C   0  0  0  0  0  0  0  0  0  0  0  0
  133.3800  133.8820  150.9330 C   0  0  0  0  0  3  0  0  0  0  0  0
  132.4470  133.6160  149.9250 C   0  0  0  0  0  3  0  0  0  0  0  0
  132.8650  133.4450  148.6070 C   0  0  0  0  0  3  0  0  0  0  0  0
  134.2150  133.5600  148.2900 C   0  0  0  0  0  3  0  0  0  0  0  0
  135.1500  133.8060  149.2990 C   0  0  0  0  0  3  0  0  0  0  0  0
  1  2  1  0  0  0  0
  2  5  1  0  0  0  0
  3  6  1  0  0  0  0
  3  2  1  0  0  0  0
  4  3  2  0  0  0  0
  6  7  1  0  0  0  0
  7  8  1  0  0  0  0
  8  9  2  0  0  0  0
 10 13  1  0  0  0  0
 10  9  1  0  0  0  0
 11 10  2  0  0  0  0
 12 11  1  0  0  0  0
 12  7  2  0  0  0  0
 14 13  1  0  0  0  0
 15 11  1  0  0  0  0
 16 15  1  0  0  0  0
 17  1  1  6  0  0  0
 17 19  1  0  0  0  0
 18 20  1  0  0  0  0
 19 18  2  0  0  0  0
 20 21  2  0  0  0  0
 20 23  1  0  0  0  0
 23 22  1  0  0  0  0
 24 17  1  0  0  0  0
 25 26  1  0  0  0  0
 25 24  1  0  0  0  0
 27 26  2  0  0  0  0
 28 27  1  0  0  0  0
 29 28  2  0  0  0  0
 29 30  1  0  0  0  0
 30 25  2  0  0  0  0
M  END
>  <MODEL>
8

>  <REMARK>
 VINA RESULT:    -6.764      4.224      8.619
 INTER + INTRA:         -12.276
 INTER:                 -11.286
 INTRA:                  -0.990
 UNBOUND:                -1.360
  Name = CHEMBL317352
  13 active torsions:
  status: ('A' for Active; 'I' for Inactive)
    1  A    between atoms: C_1  and  O_2
    2  A    between atoms: O_2  and  C_3
    3  A    between atoms: C_3  and  C_5
    4  A    between atoms: C_6  and  C_7
    5  A    between atoms: C_7  and  C_8
    6  A    between atoms: C_7  and  C_22
    7  A    between atoms: C_8  and  N_9
    8  A    between atoms: C_10  and  C_12
    9  A    between atoms: C_12  and  C_13
   10  A    between atoms: C_16  and  O_17
   11  A    between atoms: C_18  and  O_19
   12  A    between atoms: O_19  and  C_20
   13  A    between atoms: C_22  and  C_23
                            x       y       z     vdW  Elec       q    Type
                         _______ _______ _______ _____ _____    ______ ____

>  <TORSDO>
F 11

>  <SCORE>
-6.764

>  <RMSD_LB>
4.224

>  <RMSD_UB>
8.619

$$$$
CHEMBL317352
 OpenBabel10162523563D

 30 31  0  0  1  0  0  0  0  0999 V2000
  140.5150  137.0410  150.2890 C   0  0  0  0  0  2  0  0  0  0  0  0
  139.0690  137.1940  150.2560 N   0  0  0  0  0  0  0  0  0  0  0  0
  138.3300  136.2680  149.5350 C   0  0  0  0  0  0  0  0  0  0  0  0
  138.8460  135.3430  148.9120 O   0  0  0  0  0  0  0  0  0  0  0  0
  138.6280  137.9350  150.7320 H   0  0  0  0  0  0  0  0  0  0  0  0
  136.8290  136.4830  149.5440 C   0  0  0  0  0  2  0  0  0  0  0  0
  136.0900  135.6950  150.5960 C   0  0  0  0  0  0  0  0  0  0  0  0
  135.4660  134.4800  150.2900 C   0  0  0  0  0  3  0  0  0  0  0  0
  134.7180  133.8070  151.2610 C   0  0  0  0  0  3  0  0  0  0  0  0
  134.5940  134.3340  152.5510 C   0  0  0  0  0  0  0  0  0  0  0  0
  135.2300  135.5340  152.8860 C   0  0  0  0  0  0  0  0  0  0  0  0
  135.9690  136.2010  151.8970 C   0  0  0  0  0  3  0  0  0  0  0  0
  133.8290  133.6540  153.4580 O   0  0  0  0  0  0  0  0  0  0  0  0
  134.2410  133.1460  154.1300 H   0  0  0  0  0  0  0  0  0  0  0  0
  135.2320  136.1970  154.0830 O   0  0  0  0  0  0  0  0  0  0  0  0
  136.4070  136.1380  154.8790 C   0  0  0  0  0  1  0  0  0  0  0  0
  141.2660  137.7310  151.4560 C   0  0  2  0  0  3  0  0  0  0  0  0
  139.9430  138.7810  153.3310 C   0  0  0  0  0  3  0  0  0  0  0  0
  140.4560  137.6880  152.7410 C   0  0  0  0  0  3  0  0  0  0  0  0
  139.2010  138.7040  154.6120 C   0  0  0  0  0  0  0  0  0  0  0  0
  138.0980  139.1700  154.8240 O   0  0  0  0  0  0  0  0  0  0  0  0
  139.2970  137.6330  156.6880 C   0  0  0  0  0  1  0  0  0  0  0  0
  139.9700  138.0000  155.4830 O   0  0  0  0  0  0  0  0  0  0  0  0
  141.5680  139.1900  151.0020 C   0  0  0  0  0  2  0  0  0  0  0  0
  142.9630  139.7240  151.2430 C   0  0  0  0  0  0  0  0  0  0  0  0
  143.6480  140.4550  150.2630 C   0  0  0  0  0  3  0  0  0  0  0  0
  144.9400  140.9320  150.5060 C   0  0  0  0  0  3  0  0  0  0  0  0
  145.5480  140.7160  151.7420 C   0  0  0  0  0  3  0  0  0  0  0  0
  144.8570  140.0410  152.7430 C   0  0  0  0  0  3  0  0  0  0  0  0
  143.5740  139.5480  152.4950 C   0  0  0  0  0  3  0  0  0  0  0  0
  2  1  1  0  0  0  0
  2  5  1  0  0  0  0
  3  6  1  0  0  0  0
  3  2  1  0  0  0  0
  4  3  2  0  0  0  0
  6  7  1  0  0  0  0
  7 12  1  0  0  0  0
  8  7  2  0  0  0  0
  8  9  1  0  0  0  0
  9 10  2  0  0  0  0
 10 11  1  0  0  0  0
 10 13  1  0  0  0  0
 11 15  1  0  0  0  0
 12 11  2  0  0  0  0
 13 14  1  0  0  0  0
 15 16  1  0  0  0  0
 17  1  1  6  0  0  0
 17 19  1  0  0  0  0
 18 20  1  0  0  0  0
 19 18  2  0  0  0  0
 20 21  2  0  0  0  0
 20 23  1  0  0  0  0
 23 22  1  0  0  0  0
 24 25  1  0  0  0  0
 24 17  1  0  0  0  0
 25 30  1  0  0  0  0
 26 27  1  0  0  0  0
 26 25  2  0  0  0  0
 27 28  2  0  0  0  0
 28 29  1  0  0  0  0
 30 29  2  0  0  0  0
M  END
>  <MODEL>
9

>  <REMARK>
 VINA RESULT:    -6.730      4.866      7.254
 INTER + INTRA:         -12.221
 INTER:                 -10.861
 INTRA:                  -1.360
 UNBOUND:                -1.360
  Name = CHEMBL317352
  13 active torsions:
  status: ('A' for Active; 'I' for Inactive)
    1  A    between atoms: C_1  and  O_2
    2  A    between atoms: O_2  and  C_3
    3  A    between atoms: C_3  and  C_5
    4  A    between atoms: C_6  and  C_7
    5  A    between atoms: C_7  and  C_8
    6  A    between atoms: C_7  and  C_22
    7  A    between atoms: C_8  and  N_9
    8  A    between atoms: C_10  and  C_12
    9  A    between atoms: C_12  and  C_13
   10  A    between atoms: C_16  and  O_17
   11  A    between atoms: C_18  and  O_19
   12  A    between atoms: O_19  and  C_20
   13  A    between atoms: C_22  and  C_23
                            x       y       z     vdW  Elec       q    Type
                         _______ _______ _______ _____ _____    ______ ____

>  <TORSDO>
F 11

>  <SCORE>
-6.730

>  <RMSD_LB>
4.866

>  <RMSD_UB>
7.254

$$$$
