CHEMBL426272
 OpenBabel10172500343D

 26 26  0  0  0  0  0  0  0  0999 V2000
  134.7000  134.3160  154.9670 C   0  0  0  0  0  2  0  0  0  0  0  0
  135.3690  135.3590  155.8270 C   0  0  0  0  0  0  0  0  0  0  0  0
  135.9220  136.5060  155.2450 C   0  0  0  0  0  3  0  0  0  0  0  0
  136.5360  137.4710  156.0450 C   0  0  0  0  0  0  0  0  0  0  0  0
  136.6220  137.2820  157.4400 C   0  0  0  0  0  0  0  0  0  0  0  0
  136.0990  136.1390  158.0450 C   0  0  0  0  0  0  0  0  0  0  0  0
  135.4760  135.1810  157.2170 C   0  0  0  0  0  3  0  0  0  0  0  0
  136.1890  135.8070  159.5010 C   0  0  0  0  0  0  0  0  0  0  0  0
  136.5640  134.4380  160.0120 C   0  0  0  0  0  1  0  0  0  0  0  0
  135.9930  136.7220  160.3160 O   0  0  0  0  0  0  0  0  0  0  0  0
  137.0970  138.6420  155.5920 O   0  0  0  0  0  0  0  0  0  0  0  0
  138.2560  138.5200  154.7710 C   0  0  0  0  0  1  0  0  0  0  0  0
  137.2640  138.2600  158.1580 O   0  0  0  0  0  0  0  0  0  0  0  0
  137.0950  139.1630  157.9770 H   0  0  0  0  0  0  0  0  0  0  0  0
  134.5970  134.7330  152.5570 C   0  0  0  0  0  0  0  0  0  0  0  0
  135.6160  134.0740  152.3350 O   0  0  0  0  0  0  0  0  0  0  0  0
  134.0660  134.9020  153.8130 N   0  0  0  0  0  0  0  0  0  0  0  0
  133.2430  135.4310  153.9260 H   0  0  0  0  0  0  0  0  0  0  0  0
  133.8550  135.4550  151.4580 C   0  0  0  0  0  2  0  0  0  0  0  0
  132.6850  134.6320  150.9260 C   0  0  0  0  0  2  0  0  0  0  0  0
  133.1440  133.4730  150.0350 C   0  0  0  0  0  2  0  0  0  0  0  0
  132.5930  133.6340  148.6220 C   0  0  0  0  0  2  0  0  0  0  0  0
  133.7170  133.7380  147.5920 C   0  0  0  0  0  2  0  0  0  0  0  0
  133.9810  135.1950  147.2140 C   0  0  0  0  0  2  0  0  0  0  0  0
  132.8680  137.3990  146.7310 C   0  0  0  0  0  1  0  0  0  0  0  0
  132.7380  136.0560  147.4320 C   0  0  0  0  0  2  0  0  0  0  0  0
  1  2  1  0  0  0  0
  2  7  1  0  0  0  0
  3  2  2  0  0  0  0
  3  4  1  0  0  0  0
  4  5  2  0  0  0  0
  5  6  1  0  0  0  0
  5 13  1  0  0  0  0
  6  8  1  0  0  0  0
  7  6  2  0  0  0  0
  8  9  1  0  0  0  0
  8 10  2  0  0  0  0
 11  4  1  0  0  0  0
 12 11  1  0  0  0  0
 14 13  1  0  0  0  0
 15 17  1  0  0  0  0
 16 15  2  0  0  0  0
 17 18  1  0  0  0  0
 17  1  1  0  0  0  0
 19 15  1  0  0  0  0
 20 19  1  0  0  0  0
 21 20  1  0  0  0  0
 22 21  1  0  0  0  0
 23 22  1  0  0  0  0
 24 26  1  0  0  0  0
 24 23  1  0  0  0  0
 25 26  1  0  0  0  0
M  END
>  <MODEL>
1

>  <REMARK>
 VINA RESULT:    -6.718      0.000      0.000
 INTER + INTRA:         -12.273
 INTER:                 -11.092
 INTRA:                  -1.180
 UNBOUND:                -1.038
  Name = CHEMBL426272
  15 active torsions:
  status: ('A' for Active; 'I' for Inactive)
    1  A    between atoms: C_1  and  C_2
    2  A    between atoms: C_2  and  C_3
    3  A    between atoms: C_3  and  C_4
    4  A    between atoms: C_4  and  C_5
    5  A    between atoms: C_5  and  C_6
    6  A    between atoms: C_6  and  C_7
    7  A    between atoms: C_7  and  C_8
    8  A    between atoms: C_8  and  C_9
    9  A    between atoms: N_11  and  C_12
   10  A    between atoms: C_12  and  C_13
   11  A    between atoms: C_15  and  O_16
   12  A    between atoms: O_16  and  C_17
   13  A    between atoms: C_18  and  O_19
   14  A    between atoms: C_20  and  C_21
   15  A    between atoms: C_21  and  C_22
                            x       y       z     vdW  Elec       q    Type
                         _______ _______ _______ _____ _____    ______ ____

>  <TORSDO>
F 12

>  <SCORE>
-6.718

>  <RMSD_LB>
0.000

>  <RMSD_UB>
0.000

$$$$
CHEMBL426272
 OpenBabel10172500343D

 26 26  0  0  0  0  0  0  0  0999 V2000
  142.9800  137.6930  152.5900 C   0  0  0  0  0  2  0  0  0  0  0  0
  141.5320  137.8490  152.9800 C   0  0  0  0  0  0  0  0  0  0  0  0
  141.1800  138.0760  154.3170 C   0  0  0  0  0  3  0  0  0  0  0  0
  139.8390  138.2250  154.6730 C   0  0  0  0  0  0  0  0  0  0  0  0
  138.8310  138.1250  153.6910 C   0  0  0  0  0  0  0  0  0  0  0  0
  139.1500  137.8770  152.3560 C   0  0  0  0  0  0  0  0  0  0  0  0
  140.5130  137.7380  152.0180 C   0  0  0  0  0  3  0  0  0  0  0  0
  138.1640  137.6890  151.2470 C   0  0  0  0  0  0  0  0  0  0  0  0
  138.3880  138.2090  149.8480 C   0  0  0  0  0  1  0  0  0  0  0  0
  137.1410  137.0310  151.4880 O   0  0  0  0  0  0  0  0  0  0  0  0
  139.3750  138.4680  155.9450 O   0  0  0  0  0  0  0  0  0  0  0  0
  139.2280  137.3360  156.7980 C   0  0  0  0  0  1  0  0  0  0  0  0
  137.5340  138.2540  154.1210 O   0  0  0  0  0  0  0  0  0  0  0  0
  137.3110  138.9120  154.7490 H   0  0  0  0  0  0  0  0  0  0  0  0
  145.0200  138.3330  153.7810 C   0  0  0  0  0  0  0  0  0  0  0  0
  145.4680  137.1830  153.7630 O   0  0  0  0  0  0  0  0  0  0  0  0
  143.8140  138.6820  153.2250 N   0  0  0  0  0  0  0  0  0  0  0  0
  143.5140  139.6200  153.2600 H   0  0  0  0  0  0  0  0  0  0  0  0
  145.7510  139.4660  154.4600 C   0  0  0  0  0  2  0  0  0  0  0  0
  147.0650  139.7990  153.7570 C   0  0  0  0  0  2  0  0  0  0  0  0
  147.6610  141.1280  154.2310 C   0  0  0  0  0  2  0  0  0  0  0  0
  147.9750  142.0280  153.0400 C   0  0  0  0  0  2  0  0  0  0  0  0
  147.6940  141.3210  151.7150 C   0  0  0  0  0  2  0  0  0  0  0  0
  147.2450  142.3170  150.6460 C   0  0  0  0  0  2  0  0  0  0  0  0
  144.9660  141.3230  151.0250 C   0  0  0  0  0  1  0  0  0  0  0  0
  145.7460  142.5960  150.7460 C   0  0  0  0  0  2  0  0  0  0  0  0
  1  2  1  0  0  0  0
  1 17  1  0  0  0  0
  2  3  1  0  0  0  0
  3  4  2  0  0  0  0
  4 11  1  0  0  0  0
  5 13  1  0  0  0  0
  5  4  1  0  0  0  0
  6  5  2  0  0  0  0
  7  6  1  0  0  0  0
  7  2  2  0  0  0  0
  8 10  2  0  0  0  0
  8  6  1  0  0  0  0
  9  8  1  0  0  0  0
 11 12  1  0  0  0  0
 13 14  1  0  0  0  0
 15 19  1  0  0  0  0
 16 15  2  0  0  0  0
 17 18  1  0  0  0  0
 17 15  1  0  0  0  0
 20 21  1  0  0  0  0
 20 19  1  0  0  0  0
 22 21  1  0  0  0  0
 23 22  1  0  0  0  0
 24 26  1  0  0  0  0
 24 23  1  0  0  0  0
 26 25  1  0  0  0  0
M  END
>  <MODEL>
2

>  <REMARK>
 VINA RESULT:    -6.578      6.734     10.962
 INTER + INTRA:         -12.039
 INTER:                 -10.747
 INTRA:                  -1.291
 UNBOUND:                -1.038
  Name = CHEMBL426272
  15 active torsions:
  status: ('A' for Active; 'I' for Inactive)
    1  A    between atoms: C_1  and  C_2
    2  A    between atoms: C_2  and  C_3
    3  A    between atoms: C_3  and  C_4
    4  A    between atoms: C_4  and  C_5
    5  A    between atoms: C_5  and  C_6
    6  A    between atoms: C_6  and  C_7
    7  A    between atoms: C_7  and  C_8
    8  A    between atoms: C_8  and  C_9
    9  A    between atoms: N_11  and  C_12
   10  A    between atoms: C_12  and  C_13
   11  A    between atoms: C_15  and  O_16
   12  A    between atoms: O_16  and  C_17
   13  A    between atoms: C_18  and  O_19
   14  A    between atoms: C_20  and  C_21
   15  A    between atoms: C_21  and  C_22
                            x       y       z     vdW  Elec       q    Type
                         _______ _______ _______ _____ _____    ______ ____

>  <TORSDO>
F 12

>  <SCORE>
-6.578

>  <RMSD_LB>
6.734

>  <RMSD_UB>
10.962

$$$$
CHEMBL426272
 OpenBabel10172500343D

 26 26  0  0  0  0  0  0  0  0999 V2000
  139.6700  138.5810  154.8510 C   0  0  0  0  0  2  0  0  0  0  0  0
  139.8940  138.1800  153.4140 C   0  0  0  0  0  0  0  0  0  0  0  0
  138.8170  138.1250  152.5200 C   0  0  0  0  0  3  0  0  0  0  0  0
  139.0290  137.7580  151.1900 C   0  0  0  0  0  0  0  0  0  0  0  0
  140.3250  137.4180  150.7480 C   0  0  0  0  0  0  0  0  0  0  0  0
  141.4120  137.4420  151.6220 C   0  0  0  0  0  0  0  0  0  0  0  0
  141.1760  137.8240  152.9590 C   0  0  0  0  0  3  0  0  0  0  0  0
  142.8130  137.0420  151.2790 C   0  0  0  0  0  0  0  0  0  0  0  0
  144.0090  137.4320  152.1120 C   0  0  0  0  0  1  0  0  0  0  0  0
  142.9800  136.3140  150.2890 O   0  0  0  0  0  0  0  0  0  0  0  0
  138.0580  137.6860  150.2190 O   0  0  0  0  0  0  0  0  0  0  0  0
  136.9070  136.9020  150.5230 C   0  0  0  0  0  1  0  0  0  0  0  0
  140.4510  137.0400  149.4350 O   0  0  0  0  0  0  0  0  0  0  0  0
  141.0020  137.5290  148.8560 H   0  0  0  0  0  0  0  0  0  0  0  0
  137.4490  138.1270  155.7720 C   0  0  0  0  0  0  0  0  0  0  0  0
  137.0220  139.2420  155.4600 O   0  0  0  0  0  0  0  0  0  0  0  0
  138.7300  137.7090  155.5080 N   0  0  0  0  0  0  0  0  0  0  0  0
  139.0100  136.8020  155.7710 H   0  0  0  0  0  0  0  0  0  0  0  0
  136.6000  137.1240  156.5170 C   0  0  0  0  0  2  0  0  0  0  0  0
  136.6400  135.7470  155.8600 C   0  0  0  0  0  2  0  0  0  0  0  0
  136.1330  135.7740  154.4140 C   0  0  0  0  0  2  0  0  0  0  0  0
  134.6080  135.8060  154.3830 C   0  0  0  0  0  2  0  0  0  0  0  0
  134.0470  134.7750  153.4050 C   0  0  0  0  0  2  0  0  0  0  0  0
  135.1710  133.9770  152.7450 C   0  0  0  0  0  2  0  0  0  0  0  0
  133.5350  133.6030  150.8710 C   0  0  0  0  0  1  0  0  0  0  0  0
  134.9810  133.9020  151.2310 C   0  0  0  0  0  2  0  0  0  0  0  0
  1 17  1  0  0  0  0
  2  1  1  0  0  0  0
  3  2  2  0  0  0  0
  4  3  1  0  0  0  0
  5  4  2  0  0  0  0
  5  6  1  0  0  0  0
  6  7  2  0  0  0  0
  7  2  1  0  0  0  0
  8  6  1  0  0  0  0
  8  9  1  0  0  0  0
 10  8  2  0  0  0  0
 11 12  1  0  0  0  0
 11  4  1  0  0  0  0
 13  5  1  0  0  0  0
 14 13  1  0  0  0  0
 15 19  1  0  0  0  0
 16 15  2  0  0  0  0
 17 18  1  0  0  0  0
 17 15  1  0  0  0  0
 20 19  1  0  0  0  0
 21 20  1  0  0  0  0
 22 21  1  0  0  0  0
 23 22  1  0  0  0  0
 24 23  1  0  0  0  0
 25 26  1  0  0  0  0
 26 24  1  0  0  0  0
M  END
>  <MODEL>
3

>  <REMARK>
 VINA RESULT:    -6.531      3.779      7.133
 INTER + INTRA:         -11.959
 INTER:                 -10.558
 INTRA:                  -1.402
 UNBOUND:                -1.038
  Name = CHEMBL426272
  15 active torsions:
  status: ('A' for Active; 'I' for Inactive)
    1  A    between atoms: C_1  and  C_2
    2  A    between atoms: C_2  and  C_3
    3  A    between atoms: C_3  and  C_4
    4  A    between atoms: C_4  and  C_5
    5  A    between atoms: C_5  and  C_6
    6  A    between atoms: C_6  and  C_7
    7  A    between atoms: C_7  and  C_8
    8  A    between atoms: C_8  and  C_9
    9  A    between atoms: N_11  and  C_12
   10  A    between atoms: C_12  and  C_13
   11  A    between atoms: C_15  and  O_16
   12  A    between atoms: O_16  and  C_17
   13  A    between atoms: C_18  and  O_19
   14  A    between atoms: C_20  and  C_21
   15  A    between atoms: C_21  and  C_22
                            x       y       z     vdW  Elec       q    Type
                         _______ _______ _______ _____ _____    ______ ____

>  <TORSDO>
F 12

>  <SCORE>
-6.531

>  <RMSD_LB>
3.779

>  <RMSD_UB>
7.133

$$$$
CHEMBL426272
 OpenBabel10172500343D

 26 26  0  0  0  0  0  0  0  0999 V2000
  137.7450  137.9720  156.5080 C   0  0  0  0  0  2  0  0  0  0  0  0
  136.7200  136.8650  156.5120 C   0  0  0  0  0  0  0  0  0  0  0  0
  136.2740  136.3200  157.7230 C   0  0  0  0  0  3  0  0  0  0  0  0
  135.3210  135.3000  157.7230 C   0  0  0  0  0  0  0  0  0  0  0  0
  134.8220  134.7980  156.5030 C   0  0  0  0  0  0  0  0  0  0  0  0
  135.2650  135.3060  155.2810 C   0  0  0  0  0  0  0  0  0  0  0  0
  136.2220  136.3430  155.3060 C   0  0  0  0  0  3  0  0  0  0  0  0
  134.8540  134.8080  153.9320 C   0  0  0  0  0  0  0  0  0  0  0  0
  135.8340  134.5560  152.8120 C   0  0  0  0  0  1  0  0  0  0  0  0
  133.6550  134.5460  153.7530 O   0  0  0  0  0  0  0  0  0  0  0  0
  134.7950  134.7010  158.8440 O   0  0  0  0  0  0  0  0  0  0  0  0
  134.4170  135.5650  159.9120 C   0  0  0  0  0  1  0  0  0  0  0  0
  133.9100  133.7760  156.5810 O   0  0  0  0  0  0  0  0  0  0  0  0
  134.0650  133.0510  157.1540 H   0  0  0  0  0  0  0  0  0  0  0  0
  139.8880  138.0530  155.3290 C   0  0  0  0  0  0  0  0  0  0  0  0
  140.5360  138.1030  156.3780 O   0  0  0  0  0  0  0  0  0  0  0  0
  138.5170  137.9780  155.2910 N   0  0  0  0  0  0  0  0  0  0  0  0
  138.0560  137.9280  154.4220 H   0  0  0  0  0  0  0  0  0  0  0  0
  140.5530  138.1090  153.9740 C   0  0  0  0  0  2  0  0  0  0  0  0
  139.5330  138.2300  152.8450 C   0  0  0  0  0  2  0  0  0  0  0  0
  139.9530  137.4540  151.5930 C   0  0  0  0  0  2  0  0  0  0  0  0
  141.2830  137.9790  151.0590 C   0  0  0  0  0  2  0  0  0  0  0  0
  141.2890  139.5050  150.9770 C   0  0  0  0  0  2  0  0  0  0  0  0
  140.7100  139.9840  149.6470 C   0  0  0  0  0  2  0  0  0  0  0  0
  138.2010  139.9270  149.4760 C   0  0  0  0  0  1  0  0  0  0  0  0
  139.4120  140.7630  149.8560 C   0  0  0  0  0  2  0  0  0  0  0  0
  1  2  1  0  0  0  0
  2  3  1  0  0  0  0
  4  3  2  0  0  0  0
  4 11  1  0  0  0  0
  5 13  1  0  0  0  0
  5  4  1  0  0  0  0
  6  7  1  0  0  0  0
  6  5  2  0  0  0  0
  7  2  2  0  0  0  0
  8  6  1  0  0  0  0
  9  8  1  0  0  0  0
 10  8  2  0  0  0  0
 11 12  1  0  0  0  0
 13 14  1  0  0  0  0
 15 16  2  0  0  0  0
 17 15  1  0  0  0  0
 17  1  1  0  0  0  0
 18 17  1  0  0  0  0
 19 15  1  0  0  0  0
 20 19  1  0  0  0  0
 21 20  1  0  0  0  0
 22 21  1  0  0  0  0
 23 22  1  0  0  0  0
 24 26  1  0  0  0  0
 24 23  1  0  0  0  0
 25 26  1  0  0  0  0
M  END
>  <MODEL>
4

>  <REMARK>
 VINA RESULT:    -6.479      3.569      6.574
 INTER + INTRA:         -11.872
 INTER:                 -10.557
 INTRA:                  -1.315
 UNBOUND:                -1.038
  Name = CHEMBL426272
  15 active torsions:
  status: ('A' for Active; 'I' for Inactive)
    1  A    between atoms: C_1  and  C_2
    2  A    between atoms: C_2  and  C_3
    3  A    between atoms: C_3  and  C_4
    4  A    between atoms: C_4  and  C_5
    5  A    between atoms: C_5  and  C_6
    6  A    between atoms: C_6  and  C_7
    7  A    between atoms: C_7  and  C_8
    8  A    between atoms: C_8  and  C_9
    9  A    between atoms: N_11  and  C_12
   10  A    between atoms: C_12  and  C_13
   11  A    between atoms: C_15  and  O_16
   12  A    between atoms: O_16  and  C_17
   13  A    between atoms: C_18  and  O_19
   14  A    between atoms: C_20  and  C_21
   15  A    between atoms: C_21  and  C_22
                            x       y       z     vdW  Elec       q    Type
                         _______ _______ _______ _____ _____    ______ ____

>  <TORSDO>
F 12

>  <SCORE>
-6.479

>  <RMSD_LB>
3.569

>  <RMSD_UB>
6.574

$$$$
CHEMBL426272
 OpenBabel10172500343D

 26 26  0  0  0  0  0  0  0  0999 V2000
  137.7100  137.6110  155.9580 C   0  0  0  0  0  2  0  0  0  0  0  0
  136.6270  136.6100  156.2760 C   0  0  0  0  0  0  0  0  0  0  0  0
  135.7860  136.1340  155.2620 C   0  0  0  0  0  3  0  0  0  0  0  0
  134.7890  135.2040  155.5590 C   0  0  0  0  0  0  0  0  0  0  0  0
  134.6090  134.7590  156.8850 C   0  0  0  0  0  0  0  0  0  0  0  0
  135.4170  135.2330  157.9190 C   0  0  0  0  0  0  0  0  0  0  0  0
  136.4240  136.1660  157.5940 C   0  0  0  0  0  3  0  0  0  0  0  0
  135.2750  134.8790  159.3660 C   0  0  0  0  0  0  0  0  0  0  0  0
  136.4390  134.4530  160.2270 C   0  0  0  0  0  1  0  0  0  0  0  0
  134.1530  134.9930  159.8820 O   0  0  0  0  0  0  0  0  0  0  0  0
  133.9170  134.6530  154.6490 O   0  0  0  0  0  0  0  0  0  0  0  0
  134.4900  134.1180  153.4580 C   0  0  0  0  0  1  0  0  0  0  0  0
  133.5900  133.8670  157.1050 O   0  0  0  0  0  0  0  0  0  0  0  0
  133.5240  133.0910  156.5850 H   0  0  0  0  0  0  0  0  0  0  0  0
  139.1060  138.3480  154.0890 C   0  0  0  0  0  0  0  0  0  0  0  0
  139.5670  139.3000  154.7240 O   0  0  0  0  0  0  0  0  0  0  0  0
  138.1970  137.4610  154.6100 N   0  0  0  0  0  0  0  0  0  0  0  0
  137.8740  136.7130  154.0570 H   0  0  0  0  0  0  0  0  0  0  0  0
  139.4770  138.0940  152.6470 C   0  0  0  0  0  2  0  0  0  0  0  0
  140.9890  138.0970  152.4380 C   0  0  0  0  0  2  0  0  0  0  0  0
  141.3870  138.6190  151.0540 C   0  0  0  0  0  2  0  0  0  0  0  0
  142.5200  139.6340  151.1710 C   0  0  0  0  0  2  0  0  0  0  0  0
  143.3560  139.3960  152.4270 C   0  0  0  0  0  2  0  0  0  0  0  0
  144.7000  140.1170  152.3350 C   0  0  0  0  0  2  0  0  0  0  0  0
  145.4980  142.3530  151.5040 C   0  0  0  0  0  1  0  0  0  0  0  0
  144.7260  141.0910  151.1570 C   0  0  0  0  0  2  0  0  0  0  0  0
  1  2  1  0  0  0  0
  2  7  1  0  0  0  0
  3  4  1  0  0  0  0
  3  2  2  0  0  0  0
  4  5  2  0  0  0  0
  5 13  1  0  0  0  0
  5  6  1  0  0  0  0
  6  8  1  0  0  0  0
  7  6  2  0  0  0  0
  8 10  2  0  0  0  0
  8  9  1  0  0  0  0
 11  4  1  0  0  0  0
 12 11  1  0  0  0  0
 14 13  1  0  0  0  0
 15 17  1  0  0  0  0
 15 16  2  0  0  0  0
 17  1  1  0  0  0  0
 18 17  1  0  0  0  0
 19 15  1  0  0  0  0
 20 19  1  0  0  0  0
 21 22  1  0  0  0  0
 21 20  1  0  0  0  0
 22 23  1  0  0  0  0
 24 23  1  0  0  0  0
 26 25  1  0  0  0  0
 26 24  1  0  0  0  0
M  END
>  <MODEL>
5

>  <REMARK>
 VINA RESULT:    -6.455      3.962      7.425
 INTER + INTRA:         -11.833
 INTER:                 -10.877
 INTRA:                  -0.956
 UNBOUND:                -1.038
  Name = CHEMBL426272
  15 active torsions:
  status: ('A' for Active; 'I' for Inactive)
    1  A    between atoms: C_1  and  C_2
    2  A    between atoms: C_2  and  C_3
    3  A    between atoms: C_3  and  C_4
    4  A    between atoms: C_4  and  C_5
    5  A    between atoms: C_5  and  C_6
    6  A    between atoms: C_6  and  C_7
    7  A    between atoms: C_7  and  C_8
    8  A    between atoms: C_8  and  C_9
    9  A    between atoms: N_11  and  C_12
   10  A    between atoms: C_12  and  C_13
   11  A    between atoms: C_15  and  O_16
   12  A    between atoms: O_16  and  C_17
   13  A    between atoms: C_18  and  O_19
   14  A    between atoms: C_20  and  C_21
   15  A    between atoms: C_21  and  C_22
                            x       y       z     vdW  Elec       q    Type
                         _______ _______ _______ _____ _____    ______ ____

>  <TORSDO>
F 12

>  <SCORE>
-6.455

>  <RMSD_LB>
3.962

>  <RMSD_UB>
7.425

$$$$
CHEMBL426272
 OpenBabel10172500343D

 26 26  0  0  0  0  0  0  0  0999 V2000
  144.5270  137.2790  151.6550 C   0  0  0  0  0  2  0  0  0  0  0  0
  143.0220  137.3730  151.6920 C   0  0  0  0  0  0  0  0  0  0  0  0
  142.3670  137.7770  152.8620 C   0  0  0  0  0  3  0  0  0  0  0  0
  140.9750  137.8670  152.8900 C   0  0  0  0  0  0  0  0  0  0  0  0
  140.2210  137.5290  151.7470 C   0  0  0  0  0  0  0  0  0  0  0  0
  140.8440  137.1010  150.5750 C   0  0  0  0  0  0  0  0  0  0  0  0
  142.2540  137.0260  150.5670 C   0  0  0  0  0  3  0  0  0  0  0  0
  140.1440  136.6590  149.3290 C   0  0  0  0  0  0  0  0  0  0  0  0
  140.5510  135.4360  148.5450 C   0  0  0  0  0  1  0  0  0  0  0  0
  139.1530  137.3080  148.9610 O   0  0  0  0  0  0  0  0  0  0  0  0
  140.2250  138.2670  153.9710 O   0  0  0  0  0  0  0  0  0  0  0  0
  140.8440  138.1700  155.2510 C   0  0  0  0  0  1  0  0  0  0  0  0
  138.8560  137.6140  151.8590 O   0  0  0  0  0  0  0  0  0  0  0  0
  138.3370  137.8370  151.1130 H   0  0  0  0  0  0  0  0  0  0  0  0
  146.2940  138.2340  150.2570 C   0  0  0  0  0  0  0  0  0  0  0  0
  146.9100  137.1670  150.1950 O   0  0  0  0  0  0  0  0  0  0  0  0
  145.1130  138.3850  150.9420 N   0  0  0  0  0  0  0  0  0  0  0  0
  144.6610  139.2600  150.9450 H   0  0  0  0  0  0  0  0  0  0  0  0
  146.8120  139.4960  149.6090 C   0  0  0  0  0  2  0  0  0  0  0  0
  145.7350  140.5750  149.5250 C   0  0  0  0  0  2  0  0  0  0  0  0
  146.3170  141.9570  149.2080 C   0  0  0  0  0  2  0  0  0  0  0  0
  146.7600  142.6570  150.4890 C   0  0  0  0  0  2  0  0  0  0  0  0
  145.7120  142.5200  151.5920 C   0  0  0  0  0  2  0  0  0  0  0  0
  146.3500  142.0460  152.8970 C   0  0  0  0  0  2  0  0  0  0  0  0
  148.5570  141.9240  154.0990 C   0  0  0  0  0  1  0  0  0  0  0  0
  147.8630  141.8870  152.7480 C   0  0  0  0  0  2  0  0  0  0  0  0
  1  2  1  0  0  0  0
  2  3  1  0  0  0  0
  3  4  2  0  0  0  0
  4 11  1  0  0  0  0
  5 13  1  0  0  0  0
  5  4  1  0  0  0  0
  6  5  2  0  0  0  0
  7  6  1  0  0  0  0
  7  2  2  0  0  0  0
  8  6  1  0  0  0  0
  9  8  1  0  0  0  0
 10  8  2  0  0  0  0
 11 12  1  0  0  0  0
 14 13  1  0  0  0  0
 15 17  1  0  0  0  0
 16 15  2  0  0  0  0
 17 18  1  0  0  0  0
 17  1  1  0  0  0  0
 19 15  1  0  0  0  0
 20 19  1  0  0  0  0
 21 20  1  0  0  0  0
 21 22  1  0  0  0  0
 22 23  1  0  0  0  0
 23 24  1  0  0  0  0
 26 24  1  0  0  0  0
 26 25  1  0  0  0  0
M  END
>  <MODEL>
6

>  <REMARK>
 VINA RESULT:    -6.390      7.891     11.919
 INTER + INTRA:         -11.724
 INTER:                 -10.326
 INTRA:                  -1.398
 UNBOUND:                -1.038
  Name = CHEMBL426272
  15 active torsions:
  status: ('A' for Active; 'I' for Inactive)
    1  A    between atoms: C_1  and  C_2
    2  A    between atoms: C_2  and  C_3
    3  A    between atoms: C_3  and  C_4
    4  A    between atoms: C_4  and  C_5
    5  A    between atoms: C_5  and  C_6
    6  A    between atoms: C_6  and  C_7
    7  A    between atoms: C_7  and  C_8
    8  A    between atoms: C_8  and  C_9
    9  A    between atoms: N_11  and  C_12
   10  A    between atoms: C_12  and  C_13
   11  A    between atoms: C_15  and  O_16
   12  A    between atoms: O_16  and  C_17
   13  A    between atoms: C_18  and  O_19
   14  A    between atoms: C_20  and  C_21
   15  A    between atoms: C_21  and  C_22
                            x       y       z     vdW  Elec       q    Type
                         _______ _______ _______ _____ _____    ______ ____

>  <TORSDO>
F 12

>  <SCORE>
-6.390

>  <RMSD_LB>
7.891

>  <RMSD_UB>
11.919

$$$$
CHEMBL426272
 OpenBabel10172500343D

 26 26  0  0  0  0  0  0  0  0999 V2000
  138.7660  137.9860  151.2080 C   0  0  0  0  0  2  0  0  0  0  0  0
  139.0570  138.0310  152.6870 C   0  0  0  0  0  0  0  0  0  0  0  0
  140.3540  138.2970  153.1450 C   0  0  0  0  0  3  0  0  0  0  0  0
  140.6180  138.3430  154.5140 C   0  0  0  0  0  0  0  0  0  0  0  0
  139.5850  138.0970  155.4430 C   0  0  0  0  0  0  0  0  0  0  0  0
  138.2890  137.8070  155.0160 C   0  0  0  0  0  0  0  0  0  0  0  0
  138.0440  137.7740  153.6270 C   0  0  0  0  0  3  0  0  0  0  0  0
  137.1350  137.4700  155.9070 C   0  0  0  0  0  0  0  0  0  0  0  0
  136.3860  136.1620  155.8250 C   0  0  0  0  0  1  0  0  0  0  0  0
  136.8220  138.2900  156.7830 O   0  0  0  0  0  0  0  0  0  0  0  0
  141.8420  138.6120  155.0810 O   0  0  0  0  0  0  0  0  0  0  0  0
  142.9150  138.8860  154.1840 C   0  0  0  0  0  1  0  0  0  0  0  0
  139.9270  138.1310  156.7710 O   0  0  0  0  0  0  0  0  0  0  0  0
  139.2680  138.0230  157.4280 H   0  0  0  0  0  0  0  0  0  0  0  0
  137.1130  136.5470  150.1200 C   0  0  0  0  0  0  0  0  0  0  0  0
  137.9780  135.8570  149.5740 O   0  0  0  0  0  0  0  0  0  0  0  0
  137.4010  137.6070  150.9440 N   0  0  0  0  0  0  0  0  0  0  0  0
  136.6670  138.1140  151.3610 H   0  0  0  0  0  0  0  0  0  0  0  0
  135.6380  136.3090  149.8940 C   0  0  0  0  0  2  0  0  0  0  0  0
  135.2990  136.2080  148.4090 C   0  0  0  0  0  2  0  0  0  0  0  0
  134.0510  137.0160  148.0390 C   0  0  0  0  0  2  0  0  0  0  0  0
  132.9090  136.0840  147.6440 C   0  0  0  0  0  2  0  0  0  0  0  0
  133.4130  134.6690  147.3640 C   0  0  0  0  0  2  0  0  0  0  0  0
  132.5510  133.6290  148.0790 C   0  0  0  0  0  2  0  0  0  0  0  0
  134.0680  132.9380  149.9620 C   0  0  0  0  0  1  0  0  0  0  0  0
  132.7840  133.6600  149.5880 C   0  0  0  0  0  2  0  0  0  0  0  0
  1  2  1  0  0  0  0
  2  3  2  0  0  0  0
  2  7  1  0  0  0  0
  3  4  1  0  0  0  0
  4 11  1  0  0  0  0
  4  5  2  0  0  0  0
  5 13  1  0  0  0  0
  6  5  1  0  0  0  0
  6  8  1  0  0  0  0
  7  6  2  0  0  0  0
  8 10  2  0  0  0  0
  9  8  1  0  0  0  0
 12 11  1  0  0  0  0
 13 14  1  0  0  0  0
 15 17  1  0  0  0  0
 16 15  2  0  0  0  0
 17  1  1  0  0  0  0
 17 18  1  0  0  0  0
 19 15  1  0  0  0  0
 20 19  1  0  0  0  0
 21 20  1  0  0  0  0
 22 21  1  0  0  0  0
 23 22  1  0  0  0  0
 23 24  1  0  0  0  0
 24 26  1  0  0  0  0
 26 25  1  0  0  0  0
M  END
>  <MODEL>
7

>  <REMARK>
 VINA RESULT:    -6.249      2.626      4.274
 INTER + INTRA:         -11.487
 INTER:                 -10.112
 INTRA:                  -1.375
 UNBOUND:                -1.038
  Name = CHEMBL426272
  15 active torsions:
  status: ('A' for Active; 'I' for Inactive)
    1  A    between atoms: C_1  and  C_2
    2  A    between atoms: C_2  and  C_3
    3  A    between atoms: C_3  and  C_4
    4  A    between atoms: C_4  and  C_5
    5  A    between atoms: C_5  and  C_6
    6  A    between atoms: C_6  and  C_7
    7  A    between atoms: C_7  and  C_8
    8  A    between atoms: C_8  and  C_9
    9  A    between atoms: N_11  and  C_12
   10  A    between atoms: C_12  and  C_13
   11  A    between atoms: C_15  and  O_16
   12  A    between atoms: O_16  and  C_17
   13  A    between atoms: C_18  and  O_19
   14  A    between atoms: C_20  and  C_21
   15  A    between atoms: C_21  and  C_22
                            x       y       z     vdW  Elec       q    Type
                         _______ _______ _______ _____ _____    ______ ____

>  <TORSDO>
F 12

>  <SCORE>
-6.249

>  <RMSD_LB>
2.626

>  <RMSD_UB>
4.274

$$$$
CHEMBL426272
 OpenBabel10172500343D

 26 26  0  0  0  0  0  0  0  0999 V2000
  144.8710  137.4790  153.6230 C   0  0  0  0  0  2  0  0  0  0  0  0
  143.5680  137.4580  152.8640 C   0  0  0  0  0  0  0  0  0  0  0  0
  142.3650  137.7580  153.5160 C   0  0  0  0  0  3  0  0  0  0  0  0
  141.1620  137.7420  152.8090 C   0  0  0  0  0  0  0  0  0  0  0  0
  141.1510  137.4010  151.4400 C   0  0  0  0  0  0  0  0  0  0  0  0
  142.3300  137.0760  150.7700 C   0  0  0  0  0  0  0  0  0  0  0  0
  143.5350  137.1060  151.5030 C   0  0  0  0  0  3  0  0  0  0  0  0
  142.4270  136.6390  149.3420 C   0  0  0  0  0  0  0  0  0  0  0  0
  143.5170  137.1080  148.4100 C   0  0  0  0  0  1  0  0  0  0  0  0
  141.5960  135.8150  148.9310 O   0  0  0  0  0  0  0  0  0  0  0  0
  139.9260  138.0350  153.3340 O   0  0  0  0  0  0  0  0  0  0  0  0
  139.8630  139.1240  154.2520 C   0  0  0  0  0  1  0  0  0  0  0  0
  139.9270  137.3790  150.8190 O   0  0  0  0  0  0  0  0  0  0  0  0
  139.2130  137.8710  151.1710 H   0  0  0  0  0  0  0  0  0  0  0  0
  146.2960  139.3130  154.3940 C   0  0  0  0  0  0  0  0  0  0  0  0
  146.3340  138.8830  155.5490 O   0  0  0  0  0  0  0  0  0  0  0  0
  145.6120  138.6900  153.3790 N   0  0  0  0  0  0  0  0  0  0  0  0
  145.6270  139.0760  152.4730 H   0  0  0  0  0  0  0  0  0  0  0  0
  146.9740  140.6030  153.9960 C   0  0  0  0  0  2  0  0  0  0  0  0
  148.2990  140.3510  153.2810 C   0  0  0  0  0  2  0  0  0  0  0  0
  148.3490  141.0090  151.8970 C   0  0  0  0  0  2  0  0  0  0  0  0
  147.4840  142.2650  151.8710 C   0  0  0  0  0  2  0  0  0  0  0  0
  146.5760  142.2940  150.6420 C   0  0  0  0  0  2  0  0  0  0  0  0
  145.1430  141.9150  151.0110 C   0  0  0  0  0  2  0  0  0  0  0  0
  145.7100  140.1260  149.3350 C   0  0  0  0  0  1  0  0  0  0  0  0
  144.7760  140.5370  150.4620 C   0  0  0  0  0  2  0  0  0  0  0  0
  2  3  1  0  0  0  0
  2  1  1  0  0  0  0
  4 11  1  0  0  0  0
  4  3  2  0  0  0  0
  5  4  1  0  0  0  0
  6  5  2  0  0  0  0
  6  7  1  0  0  0  0
  7  2  2  0  0  0  0
  8  6  1  0  0  0  0
  9  8  1  0  0  0  0
 10  8  2  0  0  0  0
 11 12  1  0  0  0  0
 13 14  1  0  0  0  0
 13  5  1  0  0  0  0
 15 16  2  0  0  0  0
 17  1  1  0  0  0  0
 17 15  1  0  0  0  0
 18 17  1  0  0  0  0
 19 15  1  0  0  0  0
 20 19  1  0  0  0  0
 21 20  1  0  0  0  0
 22 21  1  0  0  0  0
 23 24  1  0  0  0  0
 23 22  1  0  0  0  0
 25 26  1  0  0  0  0
 26 24  1  0  0  0  0
M  END
>  <MODEL>
8

>  <REMARK>
 VINA RESULT:    -6.220      7.807     11.947
 INTER + INTRA:         -11.439
 INTER:                  -9.451
 INTRA:                  -1.988
 UNBOUND:                -1.038
  Name = CHEMBL426272
  15 active torsions:
  status: ('A' for Active; 'I' for Inactive)
    1  A    between atoms: C_1  and  C_2
    2  A    between atoms: C_2  and  C_3
    3  A    between atoms: C_3  and  C_4
    4  A    between atoms: C_4  and  C_5
    5  A    between atoms: C_5  and  C_6
    6  A    between atoms: C_6  and  C_7
    7  A    between atoms: C_7  and  C_8
    8  A    between atoms: C_8  and  C_9
    9  A    between atoms: N_11  and  C_12
   10  A    between atoms: C_12  and  C_13
   11  A    between atoms: C_15  and  O_16
   12  A    between atoms: O_16  and  C_17
   13  A    between atoms: C_18  and  O_19
   14  A    between atoms: C_20  and  C_21
   15  A    between atoms: C_21  and  C_22
                            x       y       z     vdW  Elec       q    Type
                         _______ _______ _______ _____ _____    ______ ____

>  <TORSDO>
F 12

>  <SCORE>
-6.220

>  <RMSD_LB>
7.807

>  <RMSD_UB>
11.947

$$$$
CHEMBL426272
 OpenBabel10172500343D

 26 26  0  0  0  0  0  0  0  0999 V2000
  139.2810  138.7150  154.2690 C   0  0  0  0  0  2  0  0  0  0  0  0
  140.5280  138.2490  153.5590 C   0  0  0  0  0  0  0  0  0  0  0  0
  141.7770  138.3530  154.1820 C   0  0  0  0  0  3  0  0  0  0  0  0
  142.9270  137.9160  153.5240 C   0  0  0  0  0  0  0  0  0  0  0  0
  142.8390  137.3900  152.2180 C   0  0  0  0  0  0  0  0  0  0  0  0
  141.6110  137.2960  151.5630 C   0  0  0  0  0  0  0  0  0  0  0  0
  140.4600  137.7360  152.2520 C   0  0  0  0  0  3  0  0  0  0  0  0
  141.4080  136.8160  150.1610 C   0  0  0  0  0  0  0  0  0  0  0  0
  140.0810  136.8960  149.4460 C   0  0  0  0  0  1  0  0  0  0  0  0
  142.3960  136.3800  149.5500 O   0  0  0  0  0  0  0  0  0  0  0  0
  144.2020  137.9510  154.0400 O   0  0  0  0  0  0  0  0  0  0  0  0
  144.6900  139.2240  154.4550 C   0  0  0  0  0  1  0  0  0  0  0  0
  144.0150  137.0090  151.6240 O   0  0  0  0  0  0  0  0  0  0  0  0
  144.5220  136.3120  151.9910 H   0  0  0  0  0  0  0  0  0  0  0  0
  137.2510  137.8190  155.2990 C   0  0  0  0  0  0  0  0  0  0  0  0
  136.9000  138.9230  155.7210 O   0  0  0  0  0  0  0  0  0  0  0  0
  138.3980  137.6180  154.5710 N   0  0  0  0  0  0  0  0  0  0  0  0
  138.6190  136.7130  154.2510 H   0  0  0  0  0  0  0  0  0  0  0  0
  136.4590  136.5640  155.5840 C   0  0  0  0  0  2  0  0  0  0  0  0
  135.5630  136.1780  154.4100 C   0  0  0  0  0  2  0  0  0  0  0  0
  135.8230  134.7490  153.9230 C   0  0  0  0  0  2  0  0  0  0  0  0
  134.5380  134.1240  153.3880 C   0  0  0  0  0  2  0  0  0  0  0  0
  133.7750  135.0970  152.4910 C   0  0  0  0  0  2  0  0  0  0  0  0
  133.2800  134.4010  151.2240 C   0  0  0  0  0  2  0  0  0  0  0  0
  134.0890  132.7300  149.5270 C   0  0  0  0  0  1  0  0  0  0  0  0
  134.4480  133.9610  150.3430 C   0  0  0  0  0  2  0  0  0  0  0  0
  1 17  1  0  0  0  0
  2  3  1  0  0  0  0
  2  1  1  0  0  0  0
  4 11  1  0  0  0  0
  4  3  2  0  0  0  0
  5  4  1  0  0  0  0
  6  5  2  0  0  0  0
  6  7  1  0  0  0  0
  7  2  2  0  0  0  0
  8  6  1  0  0  0  0
  9  8  1  0  0  0  0
 10  8  2  0  0  0  0
 11 12  1  0  0  0  0
 13 14  1  0  0  0  0
 13  5  1  0  0  0  0
 15 19  1  0  0  0  0
 15 16  2  0  0  0  0
 17 15  1  0  0  0  0
 18 17  1  0  0  0  0
 20 19  1  0  0  0  0
 21 20  1  0  0  0  0
 22 21  1  0  0  0  0
 23 22  1  0  0  0  0
 24 23  1  0  0  0  0
 25 26  1  0  0  0  0
 26 24  1  0  0  0  0
M  END
>  <MODEL>
9

>  <REMARK>
 VINA RESULT:    -6.206      4.259      7.149
 INTER + INTRA:         -11.416
 INTER:                 -10.378
 INTRA:                  -1.038
 UNBOUND:                -1.038
  Name = CHEMBL426272
  15 active torsions:
  status: ('A' for Active; 'I' for Inactive)
    1  A    between atoms: C_1  and  C_2
    2  A    between atoms: C_2  and  C_3
    3  A    between atoms: C_3  and  C_4
    4  A    between atoms: C_4  and  C_5
    5  A    between atoms: C_5  and  C_6
    6  A    between atoms: C_6  and  C_7
    7  A    between atoms: C_7  and  C_8
    8  A    between atoms: C_8  and  C_9
    9  A    between atoms: N_11  and  C_12
   10  A    between atoms: C_12  and  C_13
   11  A    between atoms: C_15  and  O_16
   12  A    between atoms: O_16  and  C_17
   13  A    between atoms: C_18  and  O_19
   14  A    between atoms: C_20  and  C_21
   15  A    between atoms: C_21  and  C_22
                            x       y       z     vdW  Elec       q    Type
                         _______ _______ _______ _____ _____    ______ ____

>  <TORSDO>
F 12

>  <SCORE>
-6.206

>  <RMSD_LB>
4.259

>  <RMSD_UB>
7.149

$$$$
