CHEMBL1393798
 OpenBabel10162523333D

 18 18  0  0  0  0  0  0  0  0999 V2000
  146.4400  141.6500  153.5540 C   0  0  0  0  0  0  0  0  0  0  0  0
  146.2070  142.3540  152.3640 C   0  0  0  0  0  3  0  0  0  0  0  0
  145.3030  141.8760  151.4110 C   0  0  0  0  0  3  0  0  0  0  0  0
  144.6280  140.6690  151.6140 C   0  0  0  0  0  0  0  0  0  0  0  0
  144.8550  139.9670  152.8040 C   0  0  0  0  0  3  0  0  0  0  0  0
  145.7450  140.4490  153.7770 C   0  0  0  0  0  0  0  0  0  0  0  0
  148.7360  141.7950  154.1710 C   0  0  0  0  0  1  0  0  0  0  0  0
  147.3710  142.0430  154.4790 O   0  0  0  0  0  0  0  0  0  0  0  0
  145.8550  139.6170  154.8620 O   0  0  0  0  0  0  0  0  0  0  0  0
  146.7570  138.5240  154.7400 C   0  0  0  0  0  1  0  0  0  0  0  0
  143.6610  140.1580  150.5800 C   0  0  0  0  0  2  0  0  0  0  0  0
  143.9950  140.6660  149.2700 N   0  0  0  0  0  0  0  0  0  0  0  0
  144.5680  139.8420  148.3500 C   0  0  0  0  0  0  0  0  0  0  0  0
  144.6560  140.4220  147.1270 N   0  0  0  0  0  0  0  0  0  0  0  0
  144.9690  138.7080  148.5540 O   0  0  0  0  0  0  0  0  0  0  0  0
  143.8070  141.6040  149.0420 H   0  0  0  0  0  0  0  0  0  0  0  0
  144.3240  141.3400  146.9920 H   0  0  0  0  0  0  0  0  0  0  0  0
  145.0510  139.9270  146.3740 H   0  0  0  0  0  0  0  0  0  0  0  0
  1  6  1  0  0  0  0
  1  8  1  0  0  0  0
  2  1  2  0  0  0  0
  3  4  2  0  0  0  0
  3  2  1  0  0  0  0
  4  5  1  0  0  0  0
  5  6  2  0  0  0  0
  6  9  1  0  0  0  0
  7  8  1  0  0  0  0
 10  9  1  0  0  0  0
 11  4  1  0  0  0  0
 12 11  1  0  0  0  0
 13 15  2  0  0  0  0
 13 12  1  0  0  0  0
 14 13  1  0  0  0  0
 16 12  1  0  0  0  0
 17 14  1  0  0  0  0
 18 14  1  0  0  0  0
M  END
>  <MODEL>
1

>  <REMARK>
 VINA RESULT:    -5.350      0.000      0.000
 INTER + INTRA:          -6.848
 INTER:                  -6.476
 INTRA:                  -0.372
 UNBOUND:                -0.247
  Name = CHEMBL1393798
  6 active torsions:
  status: ('A' for Active; 'I' for Inactive)
    1  A    between atoms: C_1  and  O_2
    2  A    between atoms: O_2  and  C_3
    3  A    between atoms: C_6  and  C_7
    4  A    between atoms: C_7  and  N_8
    5  A    between atoms: C_13  and  O_14
    6  A    between atoms: O_14  and  C_15
                            x       y       z     vdW  Elec       q    Type
                         _______ _______ _______ _____ _____    ______ ____

>  <TORSDO>
F 4

>  <SCORE>
-5.350

>  <RMSD_LB>
0.000

>  <RMSD_UB>
0.000

$$$$
CHEMBL1393798
 OpenBabel10162523333D

 18 18  0  0  0  0  0  0  0  0999 V2000
  137.3260  137.4100  157.7540 C   0  0  0  0  0  0  0  0  0  0  0  0
  136.5690  136.2870  158.1170 C   0  0  0  0  0  3  0  0  0  0  0  0
  135.8690  135.5510  157.1570 C   0  0  0  0  0  3  0  0  0  0  0  0
  135.8880  135.9340  155.8140 C   0  0  0  0  0  0  0  0  0  0  0  0
  136.6470  137.0520  155.4480 C   0  0  0  0  0  3  0  0  0  0  0  0
  137.3710  137.7860  156.4010 C   0  0  0  0  0  0  0  0  0  0  0  0
  137.6210  138.0190  160.0380 C   0  0  0  0  0  1  0  0  0  0  0  0
  137.9650  138.2020  158.6710 O   0  0  0  0  0  0  0  0  0  0  0  0
  138.0350  138.8580  155.8610 O   0  0  0  0  0  0  0  0  0  0  0  0
  138.5170  138.7060  154.5310 C   0  0  0  0  0  1  0  0  0  0  0  0
  135.1260  135.1400  154.7880 C   0  0  0  0  0  2  0  0  0  0  0  0
  135.7540  135.2410  153.4910 N   0  0  0  0  0  0  0  0  0  0  0  0
  135.1350  135.9270  152.4900 C   0  0  0  0  0  0  0  0  0  0  0  0
  135.9300  136.0720  151.4010 N   0  0  0  0  0  0  0  0  0  0  0  0
  134.0010  136.3770  152.5250 O   0  0  0  0  0  0  0  0  0  0  0  0
  136.6270  134.8170  153.3310 H   0  0  0  0  0  0  0  0  0  0  0  0
  136.8410  135.6970  151.4030 H   0  0  0  0  0  0  0  0  0  0  0  0
  135.5970  136.5520  150.6090 H   0  0  0  0  0  0  0  0  0  0  0  0
  1  2  1  0  0  0  0
  1  8  1  0  0  0  0
  3  2  2  0  0  0  0
  4  3  1  0  0  0  0
  5  4  2  0  0  0  0
  5  6  1  0  0  0  0
  6  1  2  0  0  0  0
  8  7  1  0  0  0  0
  9  6  1  0  0  0  0
 10  9  1  0  0  0  0
 11  4  1  0  0  0  0
 12 11  1  0  0  0  0
 13 15  2  0  0  0  0
 13 12  1  0  0  0  0
 14 17  1  0  0  0  0
 14 13  1  0  0  0  0
 16 12  1  0  0  0  0
 18 14  1  0  0  0  0
M  END
>  <MODEL>
2

>  <REMARK>
 VINA RESULT:    -5.331      9.767     10.825
 INTER + INTRA:          -6.825
 INTER:                  -6.598
 INTRA:                  -0.226
 UNBOUND:                -0.247
  Name = CHEMBL1393798
  6 active torsions:
  status: ('A' for Active; 'I' for Inactive)
    1  A    between atoms: C_1  and  O_2
    2  A    between atoms: O_2  and  C_3
    3  A    between atoms: C_6  and  C_7
    4  A    between atoms: C_7  and  N_8
    5  A    between atoms: C_13  and  O_14
    6  A    between atoms: O_14  and  C_15
                            x       y       z     vdW  Elec       q    Type
                         _______ _______ _______ _____ _____    ______ ____

>  <TORSDO>
F 4

>  <SCORE>
-5.331

>  <RMSD_LB>
9.767

>  <RMSD_UB>
10.825

$$$$
CHEMBL1393798
 OpenBabel10162523333D

 18 18  0  0  0  0  0  0  0  0999 V2000
  145.6830  142.0730  151.5540 C   0  0  0  0  0  0  0  0  0  0  0  0
  146.3070  142.3040  152.7880 C   0  0  0  0  0  3  0  0  0  0  0  0
  146.1120  141.4370  153.8670 C   0  0  0  0  0  3  0  0  0  0  0  0
  145.2670  140.3300  153.7460 C   0  0  0  0  0  0  0  0  0  0  0  0
  144.6460  140.0940  152.5130 C   0  0  0  0  0  3  0  0  0  0  0  0
  144.8530  140.9470  151.4170 C   0  0  0  0  0  0  0  0  0  0  0  0
  146.8390  142.7000  149.5680 C   0  0  0  0  0  1  0  0  0  0  0  0
  145.7880  142.9360  150.4960 O   0  0  0  0  0  0  0  0  0  0  0  0
  144.1460  140.5700  150.3030 O   0  0  0  0  0  0  0  0  0  0  0  0
  142.8600  140.0040  150.5250 C   0  0  0  0  0  1  0  0  0  0  0  0
  145.0570  139.4050  154.9130 C   0  0  0  0  0  2  0  0  0  0  0  0
  143.7210  138.8550  154.8980 N   0  0  0  0  0  0  0  0  0  0  0  0
  142.7140  139.5030  155.5460 C   0  0  0  0  0  0  0  0  0  0  0  0
  141.5020  138.9510  155.2900 N   0  0  0  0  0  0  0  0  0  0  0  0
  142.8390  140.4700  156.2800 O   0  0  0  0  0  0  0  0  0  0  0  0
  143.5390  138.0150  154.4190 H   0  0  0  0  0  0  0  0  0  0  0  0
  141.4320  138.1700  154.6940 H   0  0  0  0  0  0  0  0  0  0  0  0
  140.6920  139.3310  155.7000 H   0  0  0  0  0  0  0  0  0  0  0  0
  1  2  1  0  0  0  0
  2  3  2  0  0  0  0
  4  3  1  0  0  0  0
  4 11  1  0  0  0  0
  5  4  2  0  0  0  0
  6  1  2  0  0  0  0
  6  5  1  0  0  0  0
  7  8  1  0  0  0  0
  8  1  1  0  0  0  0
  9 10  1  0  0  0  0
  9  6  1  0  0  0  0
 12 11  1  0  0  0  0
 12 13  1  0  0  0  0
 13 15  2  0  0  0  0
 14 13  1  0  0  0  0
 14 18  1  0  0  0  0
 16 12  1  0  0  0  0
 17 14  1  0  0  0  0
M  END
>  <MODEL>
3

>  <REMARK>
 VINA RESULT:    -5.266      3.238      5.072
 INTER + INTRA:          -6.745
 INTER:                  -6.438
 INTRA:                  -0.307
 UNBOUND:                -0.247
  Name = CHEMBL1393798
  6 active torsions:
  status: ('A' for Active; 'I' for Inactive)
    1  A    between atoms: C_1  and  O_2
    2  A    between atoms: O_2  and  C_3
    3  A    between atoms: C_6  and  C_7
    4  A    between atoms: C_7  and  N_8
    5  A    between atoms: C_13  and  O_14
    6  A    between atoms: O_14  and  C_15
                            x       y       z     vdW  Elec       q    Type
                         _______ _______ _______ _____ _____    ______ ____

>  <TORSDO>
F 4

>  <SCORE>
-5.266

>  <RMSD_LB>
3.238

>  <RMSD_UB>
5.072

$$$$
CHEMBL1393798
 OpenBabel10162523333D

 18 18  0  0  0  0  0  0  0  0999 V2000
  146.4060  141.6910  153.3270 C   0  0  0  0  0  0  0  0  0  0  0  0
  146.3470  142.3470  152.0890 C   0  0  0  0  0  3  0  0  0  0  0  0
  145.4680  141.9190  151.0900 C   0  0  0  0  0  3  0  0  0  0  0  0
  144.6440  140.8100  151.2940 C   0  0  0  0  0  0  0  0  0  0  0  0
  144.6970  140.1560  152.5320 C   0  0  0  0  0  3  0  0  0  0  0  0
  145.5610  140.5910  153.5500 C   0  0  0  0  0  0  0  0  0  0  0  0
  148.6500  141.6110  154.1220 C   0  0  0  0  0  1  0  0  0  0  0  0
  147.3040  142.0300  154.3040 O   0  0  0  0  0  0  0  0  0  0  0  0
  145.4910  139.8160  154.6800 O   0  0  0  0  0  0  0  0  0  0  0  0
  146.1450  138.5540  154.6290 C   0  0  0  0  0  1  0  0  0  0  0  0
  143.7060  140.3520  150.2120 C   0  0  0  0  0  2  0  0  0  0  0  0
  142.6880  139.4800  150.7500 N   0  0  0  0  0  0  0  0  0  0  0  0
  141.4060  139.5750  150.2980 C   0  0  0  0  0  0  0  0  0  0  0  0
  140.6200  138.5780  150.7750 N   0  0  0  0  0  0  0  0  0  0  0  0
  140.9720  140.4360  149.5510 O   0  0  0  0  0  0  0  0  0  0  0  0
  142.9190  138.8180  151.4400 H   0  0  0  0  0  0  0  0  0  0  0  0
  140.9990  137.8970  151.3770 H   0  0  0  0  0  0  0  0  0  0  0  0
  139.6710  138.5350  150.5190 H   0  0  0  0  0  0  0  0  0  0  0  0
  1  6  1  0  0  0  0
  1  8  1  0  0  0  0
  2  1  2  0  0  0  0
  3  4  2  0  0  0  0
  3  2  1  0  0  0  0
  4  5  1  0  0  0  0
  5  6  2  0  0  0  0
  6  9  1  0  0  0  0
  7  8  1  0  0  0  0
 10  9  1  0  0  0  0
 11 12  1  0  0  0  0
 11  4  1  0  0  0  0
 12 16  1  0  0  0  0
 13 12  1  0  0  0  0
 13 14  1  0  0  0  0
 14 17  1  0  0  0  0
 15 13  2  0  0  0  0
 18 14  1  0  0  0  0
M  END
>  <MODEL>
4

>  <REMARK>
 VINA RESULT:    -5.197      1.831      2.215
 INTER + INTRA:          -6.659
 INTER:                  -6.335
 INTRA:                  -0.325
 UNBOUND:                -0.247
  Name = CHEMBL1393798
  6 active torsions:
  status: ('A' for Active; 'I' for Inactive)
    1  A    between atoms: C_1  and  O_2
    2  A    between atoms: O_2  and  C_3
    3  A    between atoms: C_6  and  C_7
    4  A    between atoms: C_7  and  N_8
    5  A    between atoms: C_13  and  O_14
    6  A    between atoms: O_14  and  C_15
                            x       y       z     vdW  Elec       q    Type
                         _______ _______ _______ _____ _____    ______ ____

>  <TORSDO>
F 4

>  <SCORE>
-5.197

>  <RMSD_LB>
1.831

>  <RMSD_UB>
2.215

$$$$
CHEMBL1393798
 OpenBabel10162523333D

 18 18  0  0  0  0  0  0  0  0999 V2000
  134.6290  134.0950  147.4560 C   0  0  0  0  0  0  0  0  0  0  0  0
  133.5160  133.3430  147.8590 C   0  0  0  0  0  3  0  0  0  0  0  0
  132.8190  133.6620  149.0280 C   0  0  0  0  0  3  0  0  0  0  0  0
  133.2320  134.7250  149.8350 C   0  0  0  0  0  0  0  0  0  0  0  0
  134.3400  135.4810  149.4310 C   0  0  0  0  0  3  0  0  0  0  0  0
  135.0340  135.1820  148.2480 C   0  0  0  0  0  0  0  0  0  0  0  0
  136.3730  132.7640  146.5270 C   0  0  0  0  0  1  0  0  0  0  0  0
  135.3840  133.7720  146.3590 O   0  0  0  0  0  0  0  0  0  0  0  0
  136.1030  136.0150  148.0290 O   0  0  0  0  0  0  0  0  0  0  0  0
  135.8020  137.3430  147.6170 C   0  0  0  0  0  1  0  0  0  0  0  0
  132.4810  135.0580  151.0950 C   0  0  0  0  0  2  0  0  0  0  0  0
  133.1110  134.4520  152.2440 N   0  0  0  0  0  0  0  0  0  0  0  0
  133.8540  135.2170  153.0910 C   0  0  0  0  0  0  0  0  0  0  0  0
  134.2280  134.5350  154.2030 N   0  0  0  0  0  0  0  0  0  0  0  0
  134.1690  136.3820  152.9150 O   0  0  0  0  0  0  0  0  0  0  0  0
  133.0040  133.4890  152.4150 H   0  0  0  0  0  0  0  0  0  0  0  0
  133.9590  133.5940  154.3170 H   0  0  0  0  0  0  0  0  0  0  0  0
  134.7680  134.9800  154.8950 H   0  0  0  0  0  0  0  0  0  0  0  0
  1  2  2  0  0  0  0
  1  6  1  0  0  0  0
  2  3  1  0  0  0  0
  3  4  2  0  0  0  0
  4 11  1  0  0  0  0
  5  4  1  0  0  0  0
  6  5  2  0  0  0  0
  8  7  1  0  0  0  0
  8  1  1  0  0  0  0
  9  6  1  0  0  0  0
 10  9  1  0  0  0  0
 11 12  1  0  0  0  0
 12 16  1  0  0  0  0
 12 13  1  0  0  0  0
 13 14  1  0  0  0  0
 14 17  1  0  0  0  0
 14 18  1  0  0  0  0
 15 13  2  0  0  0  0
M  END
>  <MODEL>
5

>  <REMARK>
 VINA RESULT:    -5.110     12.034     13.945
 INTER + INTRA:          -6.552
 INTER:                  -6.204
 INTRA:                  -0.349
 UNBOUND:                -0.247
  Name = CHEMBL1393798
  6 active torsions:
  status: ('A' for Active; 'I' for Inactive)
    1  A    between atoms: C_1  and  O_2
    2  A    between atoms: O_2  and  C_3
    3  A    between atoms: C_6  and  C_7
    4  A    between atoms: C_7  and  N_8
    5  A    between atoms: C_13  and  O_14
    6  A    between atoms: O_14  and  C_15
                            x       y       z     vdW  Elec       q    Type
                         _______ _______ _______ _____ _____    ______ ____

>  <TORSDO>
F 4

>  <SCORE>
-5.110

>  <RMSD_LB>
12.034

>  <RMSD_UB>
13.945

$$$$
CHEMBL1393798
 OpenBabel10162523333D

 18 18  0  0  0  0  0  0  0  0999 V2000
  146.4050  139.2740  151.9570 C   0  0  0  0  0  0  0  0  0  0  0  0
  146.2560  137.8900  152.1220 C   0  0  0  0  0  3  0  0  0  0  0  0
  146.8220  137.2320  153.2180 C   0  0  0  0  0  3  0  0  0  0  0  0
  147.5730  137.9370  154.1610 C   0  0  0  0  0  0  0  0  0  0  0  0
  147.7190  139.3210  154.0010 C   0  0  0  0  0  3  0  0  0  0  0  0
  147.1370  139.9950  152.9160 C   0  0  0  0  0  0  0  0  0  0  0  0
  146.6700  139.8200  149.6530 C   0  0  0  0  0  1  0  0  0  0  0  0
  145.9310  139.9460  150.8610 O   0  0  0  0  0  0  0  0  0  0  0  0
  147.4060  141.3400  152.9140 O   0  0  0  0  0  0  0  0  0  0  0  0
  146.3490  142.2030  153.3160 C   0  0  0  0  0  1  0  0  0  0  0  0
  148.1850  137.2200  155.3340 C   0  0  0  0  0  2  0  0  0  0  0  0
  148.0130  137.9830  156.5480 N   0  0  0  0  0  0  0  0  0  0  0  0
  148.6100  137.5660  157.6990 C   0  0  0  0  0  0  0  0  0  0  0  0
  148.4930  138.4790  158.6960 N   0  0  0  0  0  0  0  0  0  0  0  0
  149.1930  136.5070  157.8620 O   0  0  0  0  0  0  0  0  0  0  0  0
  147.4680  138.8020  156.5440 H   0  0  0  0  0  0  0  0  0  0  0  0
  148.0160  139.3260  158.5350 H   0  0  0  0  0  0  0  0  0  0  0  0
  148.8860  138.2960  159.5790 H   0  0  0  0  0  0  0  0  0  0  0  0
  1  2  2  0  0  0  0
  1  6  1  0  0  0  0
  2  3  1  0  0  0  0
  3  4  2  0  0  0  0
  4 11  1  0  0  0  0
  5  4  1  0  0  0  0
  6  5  2  0  0  0  0
  7  8  1  0  0  0  0
  8  1  1  0  0  0  0
  9  6  1  0  0  0  0
  9 10  1  0  0  0  0
 11 12  1  0  0  0  0
 12 13  1  0  0  0  0
 13 15  2  0  0  0  0
 13 14  1  0  0  0  0
 14 18  1  0  0  0  0
 16 12  1  0  0  0  0
 17 14  1  0  0  0  0
M  END
>  <MODEL>
6

>  <REMARK>
 VINA RESULT:    -4.962      4.282      6.646
 INTER + INTRA:          -6.370
 INTER:                  -6.147
 INTRA:                  -0.222
 UNBOUND:                -0.247
  Name = CHEMBL1393798
  6 active torsions:
  status: ('A' for Active; 'I' for Inactive)
    1  A    between atoms: C_1  and  O_2
    2  A    between atoms: O_2  and  C_3
    3  A    between atoms: C_6  and  C_7
    4  A    between atoms: C_7  and  N_8
    5  A    between atoms: C_13  and  O_14
    6  A    between atoms: O_14  and  C_15
                            x       y       z     vdW  Elec       q    Type
                         _______ _______ _______ _____ _____    ______ ____

>  <TORSDO>
F 4

>  <SCORE>
-4.962

>  <RMSD_LB>
4.282

>  <RMSD_UB>
6.646

$$$$
CHEMBL1393798
 OpenBabel10162523333D

 18 18  0  0  0  0  0  0  0  0999 V2000
  141.0110  137.9710  150.2800 C   0  0  0  0  0  0  0  0  0  0  0  0
  141.8300  137.1720  151.0900 C   0  0  0  0  0  3  0  0  0  0  0  0
  142.9200  137.7200  151.7720 C   0  0  0  0  0  3  0  0  0  0  0  0
  143.2330  139.0750  151.6420 C   0  0  0  0  0  0  0  0  0  0  0  0
  142.4140  139.8770  150.8370 C   0  0  0  0  0  3  0  0  0  0  0  0
  141.3040  139.3410  150.1650 C   0  0  0  0  0  0  0  0  0  0  0  0
  138.7910  137.1090  150.2320 C   0  0  0  0  0  1  0  0  0  0  0  0
  139.9800  137.4620  149.5360 O   0  0  0  0  0  0  0  0  0  0  0  0
  140.6360  140.2710  149.4090 O   0  0  0  0  0  0  0  0  0  0  0  0
  139.5060  140.8900  150.0120 C   0  0  0  0  0  1  0  0  0  0  0  0
  144.4120  139.6550  152.3750 C   0  0  0  0  0  2  0  0  0  0  0  0
  144.0850  139.9040  153.7590 N   0  0  0  0  0  0  0  0  0  0  0  0
  144.7460  139.2340  154.7430 C   0  0  0  0  0  0  0  0  0  0  0  0
  144.4430  139.7060  155.9780 N   0  0  0  0  0  0  0  0  0  0  0  0
  145.5290  138.3120  154.5810 O   0  0  0  0  0  0  0  0  0  0  0  0
  143.3860  140.5570  153.9910 H   0  0  0  0  0  0  0  0  0  0  0  0
  143.8070  140.4520  156.0770 H   0  0  0  0  0  0  0  0  0  0  0  0
  144.8590  139.3050  156.7740 H   0  0  0  0  0  0  0  0  0  0  0  0
  1  2  1  0  0  0  0
  2  3  2  0  0  0  0
  4  3  1  0  0  0  0
  4 11  1  0  0  0  0
  5  4  2  0  0  0  0
  6  1  2  0  0  0  0
  6  5  1  0  0  0  0
  8  7  1  0  0  0  0
  8  1  1  0  0  0  0
  9 10  1  0  0  0  0
  9  6  1  0  0  0  0
 11 12  1  0  0  0  0
 12 16  1  0  0  0  0
 12 13  1  0  0  0  0
 13 14  1  0  0  0  0
 14 17  1  0  0  0  0
 14 18  1  0  0  0  0
 15 13  2  0  0  0  0
M  END
>  <MODEL>
7

>  <REMARK>
 VINA RESULT:    -4.814      3.796      6.970
 INTER + INTRA:          -6.187
 INTER:                  -5.837
 INTRA:                  -0.350
 UNBOUND:                -0.247
  Name = CHEMBL1393798
  6 active torsions:
  status: ('A' for Active; 'I' for Inactive)
    1  A    between atoms: C_1  and  O_2
    2  A    between atoms: O_2  and  C_3
    3  A    between atoms: C_6  and  C_7
    4  A    between atoms: C_7  and  N_8
    5  A    between atoms: C_13  and  O_14
    6  A    between atoms: O_14  and  C_15
                            x       y       z     vdW  Elec       q    Type
                         _______ _______ _______ _____ _____    ______ ____

>  <TORSDO>
F 4

>  <SCORE>
-4.814

>  <RMSD_LB>
3.796

>  <RMSD_UB>
6.970

$$$$
CHEMBL1393798
 OpenBabel10162523333D

 18 18  0  0  0  0  0  0  0  0999 V2000
  145.8870  139.5360  152.1350 C   0  0  0  0  0  0  0  0  0  0  0  0
  144.6260  139.8820  151.6270 C   0  0  0  0  0  3  0  0  0  0  0  0
  143.4610  139.6050  152.3470 C   0  0  0  0  0  3  0  0  0  0  0  0
  143.5240  138.9540  153.5810 C   0  0  0  0  0  0  0  0  0  0  0  0
  144.7820  138.6120  154.0930 C   0  0  0  0  0  3  0  0  0  0  0  0
  145.9600  138.9040  153.3890 C   0  0  0  0  0  0  0  0  0  0  0  0
  147.0580  140.7600  150.4610 C   0  0  0  0  0  1  0  0  0  0  0  0
  147.0470  139.7210  151.4310 O   0  0  0  0  0  0  0  0  0  0  0  0
  147.0920  138.4750  154.0350 O   0  0  0  0  0  0  0  0  0  0  0  0
  147.1620  138.7270  155.4330 C   0  0  0  0  0  1  0  0  0  0  0  0
  142.2640  138.6540  154.3460 C   0  0  0  0  0  2  0  0  0  0  0  0
  141.1010  139.0940  153.6130 N   0  0  0  0  0  0  0  0  0  0  0  0
  139.8910  139.1590  154.2360 C   0  0  0  0  0  0  0  0  0  0  0  0
  138.9480  139.7510  153.4620 N   0  0  0  0  0  0  0  0  0  0  0  0
  139.6390  138.7470  155.3560 O   0  0  0  0  0  0  0  0  0  0  0  0
  141.1820  139.3480  152.6660 H   0  0  0  0  0  0  0  0  0  0  0  0
  139.1810  140.0740  152.5610 H   0  0  0  0  0  0  0  0  0  0  0  0
  138.0310  139.8600  153.8010 H   0  0  0  0  0  0  0  0  0  0  0  0
  1  6  1  0  0  0  0
  2  1  2  0  0  0  0
  2  3  1  0  0  0  0
  3  4  2  0  0  0  0
  4  5  1  0  0  0  0
  4 11  1  0  0  0  0
  6  9  1  0  0  0  0
  6  5  2  0  0  0  0
  7  8  1  0  0  0  0
  8  1  1  0  0  0  0
  9 10  1  0  0  0  0
 12 13  1  0  0  0  0
 12 11  1  0  0  0  0
 13 15  2  0  0  0  0
 14 18  1  0  0  0  0
 14 13  1  0  0  0  0
 16 12  1  0  0  0  0
 17 14  1  0  0  0  0
M  END
>  <MODEL>
8

>  <REMARK>
 VINA RESULT:    -4.678      3.541      4.684
 INTER + INTRA:          -6.020
 INTER:                  -5.773
 INTRA:                  -0.247
 UNBOUND:                -0.247
  Name = CHEMBL1393798
  6 active torsions:
  status: ('A' for Active; 'I' for Inactive)
    1  A    between atoms: C_1  and  O_2
    2  A    between atoms: O_2  and  C_3
    3  A    between atoms: C_6  and  C_7
    4  A    between atoms: C_7  and  N_8
    5  A    between atoms: C_13  and  O_14
    6  A    between atoms: O_14  and  C_15
                            x       y       z     vdW  Elec       q    Type
                         _______ _______ _______ _____ _____    ______ ____

>  <TORSDO>
F 4

>  <SCORE>
-4.678

>  <RMSD_LB>
3.541

>  <RMSD_UB>
4.684

$$$$
CHEMBL1393798
 OpenBabel10162523333D

 18 18  0  0  0  0  0  0  0  0999 V2000
  143.3930  139.7620  151.2070 C   0  0  0  0  0  0  0  0  0  0  0  0
  144.7530  140.0530  151.0330 C   0  0  0  0  0  3  0  0  0  0  0  0
  145.6700  139.8550  152.0690 C   0  0  0  0  0  3  0  0  0  0  0  0
  145.2450  139.3830  153.3140 C   0  0  0  0  0  0  0  0  0  0  0  0
  143.8880  139.0860  153.4890 C   0  0  0  0  0  3  0  0  0  0  0  0
  142.9630  139.2610  152.4480 C   0  0  0  0  0  0  0  0  0  0  0  0
  142.7740  139.6420  148.9100 C   0  0  0  0  0  1  0  0  0  0  0  0
  142.4510  140.0110  150.2450 O   0  0  0  0  0  0  0  0  0  0  0  0
  141.6790  138.9400  152.8120 O   0  0  0  0  0  0  0  0  0  0  0  0
  141.5280  138.1450  153.9810 C   0  0  0  0  0  1  0  0  0  0  0  0
  146.2370  139.1780  154.4260 C   0  0  0  0  0  2  0  0  0  0  0  0
  146.8840  140.4220  154.7720 N   0  0  0  0  0  0  0  0  0  0  0  0
  148.2070  140.5960  154.5000 C   0  0  0  0  0  0  0  0  0  0  0  0
  148.6140  141.8700  154.7270 N   0  0  0  0  0  0  0  0  0  0  0  0
  148.9750  139.7370  154.0960 O   0  0  0  0  0  0  0  0  0  0  0  0
  146.3710  141.1420  155.2020 H   0  0  0  0  0  0  0  0  0  0  0  0
  147.9710  142.5410  155.0530 H   0  0  0  0  0  0  0  0  0  0  0  0
  149.5510  142.1230  154.5650 H   0  0  0  0  0  0  0  0  0  0  0  0
  1  6  1  0  0  0  0
  2  1  2  0  0  0  0
  2  3  1  0  0  0  0
  3  4  2  0  0  0  0
  4  5  1  0  0  0  0
  4 11  1  0  0  0  0
  6  9  1  0  0  0  0
  6  5  2  0  0  0  0
  7  8  1  0  0  0  0
  8  1  1  0  0  0  0
  9 10  1  0  0  0  0
 11 12  1  0  0  0  0
 12 16  1  0  0  0  0
 13 14  1  0  0  0  0
 13 12  1  0  0  0  0
 14 17  1  0  0  0  0
 15 13  2  0  0  0  0
 18 14  1  0  0  0  0
M  END
>  <MODEL>
9

>  <REMARK>
 VINA RESULT:    -4.677      3.306      5.480
 INTER + INTRA:          -6.018
 INTER:                  -5.751
 INTRA:                  -0.267
 UNBOUND:                -0.247
  Name = CHEMBL1393798
  6 active torsions:
  status: ('A' for Active; 'I' for Inactive)
    1  A    between atoms: C_1  and  O_2
    2  A    between atoms: O_2  and  C_3
    3  A    between atoms: C_6  and  C_7
    4  A    between atoms: C_7  and  N_8
    5  A    between atoms: C_13  and  O_14
    6  A    between atoms: O_14  and  C_15
                            x       y       z     vdW  Elec       q    Type
                         _______ _______ _______ _____ _____    ______ ____

>  <TORSDO>
F 4

>  <SCORE>
-4.677

>  <RMSD_LB>
3.306

>  <RMSD_UB>
5.480

$$$$
