CHEMBL309534
 OpenBabel10172500063D

 27 27  0  0  0  0  0  0  0  0999 V2000
  145.8320  137.0650  148.9050 C   0  0  0  0  0  0  0  0  0  0  0  0
  147.2630  137.0480  148.0480 S   0  0  0  0  0  0  0  0  0  0  0  0
  144.3460  139.0770  148.9110 C   0  0  0  0  0  0  0  0  0  0  0  0
  143.2310  139.5600  148.5590 O   0  0  0  0  0  0  0  0  0  0  0  0
  144.6620  137.7790  148.6120 N   0  0  0  0  0  0  0  0  0  0  0  0
  143.9720  137.2770  148.1210 H   0  0  0  0  0  0  0  0  0  0  0  0
  145.3290  139.8860  149.7270 C   0  0  0  0  0  2  0  0  0  0  0  0
  144.5720  140.8790  150.5990 C   0  0  0  0  0  2  0  0  0  0  0  0
  145.4160  141.9730  151.2300 C   0  0  0  0  0  2  0  0  0  0  0  0
  146.3370  142.5840  150.1620 C   0  0  0  0  0  2  0  0  0  0  0  0
  147.8030  142.5290  150.5860 C   0  0  0  0  0  2  0  0  0  0  0  0
  148.0390  141.4830  151.6780 C   0  0  0  0  0  2  0  0  0  0  0  0
  148.3950  141.8220  154.1510 C   0  0  0  0  0  1  0  0  0  0  0  0
  148.9730  142.0240  152.7610 C   0  0  0  0  0  2  0  0  0  0  0  0
  145.7160  136.2910  150.0390 N   0  0  0  0  0  0  0  0  0  0  0  0
  144.9150  135.7250  150.1320 H   0  0  0  0  0  0  0  0  0  0  0  0
  146.7060  136.2590  151.1120 C   0  0  0  0  0  2  0  0  0  0  0  0
  146.3070  137.0530  152.3280 C   0  0  0  0  0  0  0  0  0  0  0  0
  144.9790  137.4570  152.5420 C   0  0  0  0  0  3  0  0  0  0  0  0
  144.6490  138.1950  153.6850 C   0  0  0  0  0  3  0  0  0  0  0  0
  145.6270  138.5330  154.6220 C   0  0  0  0  0  0  0  0  0  0  0  0
  146.9550  138.1410  154.4330 C   0  0  0  0  0  0  0  0  0  0  0  0
  147.2720  137.4120  153.2750 C   0  0  0  0  0  3  0  0  0  0  0  0
  145.2480  139.2490  155.7250 O   0  0  0  0  0  0  0  0  0  0  0  0
  144.6080  139.9280  155.6450 H   0  0  0  0  0  0  0  0  0  0  0  0
  148.0290  138.3610  155.2520 O   0  0  0  0  0  0  0  0  0  0  0  0
  148.4900  137.2800  156.0540 C   0  0  0  0  0  1  0  0  0  0  0  0
  1 15  1  0  0  0  0
  2  1  2  0  0  0  0
  3  7  1  0  0  0  0
  4  3  2  0  0  0  0
  5  1  1  0  0  0  0
  5  3  1  0  0  0  0
  6  5  1  0  0  0  0
  7  8  1  0  0  0  0
  8  9  1  0  0  0  0
 10 11  1  0  0  0  0
 10  9  1  0  0  0  0
 11 12  1  0  0  0  0
 12 14  1  0  0  0  0
 14 13  1  0  0  0  0
 15 16  1  0  0  0  0
 15 17  1  0  0  0  0
 17 18  1  0  0  0  0
 18 19  2  0  0  0  0
 18 23  1  0  0  0  0
 19 20  1  0  0  0  0
 20 21  2  0  0  0  0
 21 24  1  0  0  0  0
 22 21  1  0  0  0  0
 22 26  1  0  0  0  0
 23 22  2  0  0  0  0
 25 24  1  0  0  0  0
 26 27  1  0  0  0  0
M  END
>  <MODEL>
1

>  <REMARK>
 VINA RESULT:    -6.189      0.000      0.000
 INTER + INTRA:         -11.801
 INTER:                  -9.925
 INTRA:                  -1.876
 UNBOUND:                -1.089
  Name = CHEMBL309534
  15 active torsions:
  status: ('A' for Active; 'I' for Inactive)
    1  A    between atoms: C_1  and  C_2
    2  A    between atoms: C_2  and  C_3
    3  A    between atoms: C_3  and  C_4
    4  A    between atoms: C_4  and  C_5
    5  A    between atoms: C_5  and  C_6
    6  A    between atoms: C_6  and  C_7
    7  A    between atoms: C_7  and  C_8
    8  A    between atoms: C_8  and  C_9
    9  A    between atoms: N_11  and  C_12
   10  A    between atoms: C_12  and  N_14
   11  A    between atoms: N_14  and  C_15
   12  A    between atoms: C_15  and  C_16
   13  A    between atoms: C_19  and  O_20
   14  A    between atoms: C_21  and  O_22
   15  A    between atoms: O_22  and  C_23
                            x       y       z     vdW  Elec       q    Type
                         _______ _______ _______ _____ _____    ______ ____

>  <TORSDO>
F 13

>  <SCORE>
-6.189

>  <RMSD_LB>
0.000

>  <RMSD_UB>
0.000

$$$$
CHEMBL309534
 OpenBabel10172500063D

 27 27  0  0  0  0  0  0  0  0999 V2000
  145.1200  137.6670  149.3030 C   0  0  0  0  0  0  0  0  0  0  0  0
  146.1890  138.0160  148.0710 S   0  0  0  0  0  0  0  0  0  0  0  0
  143.8870  139.5870  150.3280 C   0  0  0  0  0  0  0  0  0  0  0  0
  142.7550  140.0920  150.5820 O   0  0  0  0  0  0  0  0  0  0  0  0
  143.9760  138.3860  149.6770 N   0  0  0  0  0  0  0  0  0  0  0  0
  143.1170  137.9680  149.4380 H   0  0  0  0  0  0  0  0  0  0  0  0
  145.1640  140.2510  150.7890 C   0  0  0  0  0  2  0  0  0  0  0  0
  144.9700  141.7620  150.8190 C   0  0  0  0  0  2  0  0  0  0  0  0
  146.2340  142.5870  150.6440 C   0  0  0  0  0  2  0  0  0  0  0  0
  147.4430  141.6470  150.5260 C   0  0  0  0  0  2  0  0  0  0  0  0
  148.5620  142.0450  151.4860 C   0  0  0  0  0  2  0  0  0  0  0  0
  148.6040  141.1360  152.7160 C   0  0  0  0  0  2  0  0  0  0  0  0
  146.6880  142.0020  154.1070 C   0  0  0  0  0  1  0  0  0  0  0  0
  148.1990  141.9020  153.9760 C   0  0  0  0  0  2  0  0  0  0  0  0
  145.3200  136.5420  150.0720 N   0  0  0  0  0  0  0  0  0  0  0  0
  144.6040  135.8670  150.0980 H   0  0  0  0  0  0  0  0  0  0  0  0
  146.5290  136.2900  150.8520 C   0  0  0  0  0  2  0  0  0  0  0  0
  146.5460  136.9920  152.1860 C   0  0  0  0  0  0  0  0  0  0  0  0
  147.7480  137.3670  152.8070 C   0  0  0  0  0  3  0  0  0  0  0  0
  147.7200  138.0160  154.0470 C   0  0  0  0  0  3  0  0  0  0  0  0
  146.5070  138.3020  154.6750 C   0  0  0  0  0  0  0  0  0  0  0  0
  145.2960  137.9420  154.0750 C   0  0  0  0  0  0  0  0  0  0  0  0
  145.3420  137.2790  152.8380 C   0  0  0  0  0  3  0  0  0  0  0  0
  146.5380  138.9460  155.8820 O   0  0  0  0  0  0  0  0  0  0  0  0
  146.1620  139.8010  155.9660 H   0  0  0  0  0  0  0  0  0  0  0  0
  144.0250  138.1630  154.5310 O   0  0  0  0  0  0  0  0  0  0  0  0
  143.3470  139.3280  154.0780 C   0  0  0  0  0  1  0  0  0  0  0  0
  1  5  1  0  0  0  0
  1 15  1  0  0  0  0
  2  1  2  0  0  0  0
  3  4  2  0  0  0  0
  3  7  1  0  0  0  0
  5  3  1  0  0  0  0
  6  5  1  0  0  0  0
  7  8  1  0  0  0  0
  9  8  1  0  0  0  0
 10  9  1  0  0  0  0
 10 11  1  0  0  0  0
 11 12  1  0  0  0  0
 12 14  1  0  0  0  0
 14 13  1  0  0  0  0
 15 16  1  0  0  0  0
 15 17  1  0  0  0  0
 17 18  1  0  0  0  0
 18 19  2  0  0  0  0
 18 23  1  0  0  0  0
 19 20  1  0  0  0  0
 20 21  2  0  0  0  0
 21 24  1  0  0  0  0
 22 26  1  0  0  0  0
 22 21  1  0  0  0  0
 23 22  2  0  0  0  0
 24 25  1  0  0  0  0
 27 26  1  0  0  0  0
M  END
>  <MODEL>
2

>  <REMARK>
 VINA RESULT:    -6.166      1.129      2.087
 INTER + INTRA:         -11.760
 INTER:                  -9.578
 INTRA:                  -2.183
 UNBOUND:                -1.089
  Name = CHEMBL309534
  15 active torsions:
  status: ('A' for Active; 'I' for Inactive)
    1  A    between atoms: C_1  and  C_2
    2  A    between atoms: C_2  and  C_3
    3  A    between atoms: C_3  and  C_4
    4  A    between atoms: C_4  and  C_5
    5  A    between atoms: C_5  and  C_6
    6  A    between atoms: C_6  and  C_7
    7  A    between atoms: C_7  and  C_8
    8  A    between atoms: C_8  and  C_9
    9  A    between atoms: N_11  and  C_12
   10  A    between atoms: C_12  and  N_14
   11  A    between atoms: N_14  and  C_15
   12  A    between atoms: C_15  and  C_16
   13  A    between atoms: C_19  and  O_20
   14  A    between atoms: C_21  and  O_22
   15  A    between atoms: O_22  and  C_23
                            x       y       z     vdW  Elec       q    Type
                         _______ _______ _______ _____ _____    ______ ____

>  <TORSDO>
F 13

>  <SCORE>
-6.166

>  <RMSD_LB>
1.129

>  <RMSD_UB>
2.087

$$$$
CHEMBL309534
 OpenBabel10172500063D

 27 27  0  0  0  0  0  0  0  0999 V2000
  133.1030  137.3750  145.8730 C   0  0  0  0  0  0  0  0  0  0  0  0
  133.3330  138.8450  145.1200 S   0  0  0  0  0  0  0  0  0  0  0  0
  133.4030  137.0810  148.3390 C   0  0  0  0  0  0  0  0  0  0  0  0
  132.8340  136.8590  149.4470 O   0  0  0  0  0  0  0  0  0  0  0  0
  132.6680  137.1400  147.1860 N   0  0  0  0  0  0  0  0  0  0  0  0
  131.7000  136.9970  147.2920 H   0  0  0  0  0  0  0  0  0  0  0  0
  134.9050  137.2180  148.2420 C   0  0  0  0  0  2  0  0  0  0  0  0
  135.5700  136.1800  149.1380 C   0  0  0  0  0  2  0  0  0  0  0  0
  136.8960  136.5980  149.7510 C   0  0  0  0  0  2  0  0  0  0  0  0
  136.8080  136.4840  151.2800 C   0  0  0  0  0  2  0  0  0  0  0  0
  135.4450  135.9600  151.7270 C   0  0  0  0  0  2  0  0  0  0  0  0
  135.5130  134.4920  152.1560 C   0  0  0  0  0  2  0  0  0  0  0  0
  134.0120  133.2960  150.5230 C   0  0  0  0  0  1  0  0  0  0  0  0
  134.1670  133.7990  151.9480 C   0  0  0  0  0  2  0  0  0  0  0  0
  133.3330  136.2130  145.1700 N   0  0  0  0  0  0  0  0  0  0  0  0
  132.5650  135.6250  144.9830 H   0  0  0  0  0  0  0  0  0  0  0  0
  134.6470  135.7970  144.6870 C   0  0  0  0  0  2  0  0  0  0  0  0
  135.0860  134.4530  145.2080 C   0  0  0  0  0  0  0  0  0  0  0  0
  134.6970  133.9900  146.4750 C   0  0  0  0  0  3  0  0  0  0  0  0
  135.1280  132.7360  146.9220 C   0  0  0  0  0  3  0  0  0  0  0  0
  135.9400  131.9330  146.1200 C   0  0  0  0  0  0  0  0  0  0  0  0
  136.3400  132.3710  144.8540 C   0  0  0  0  0  0  0  0  0  0  0  0
  135.9090  133.6370  144.4250 C   0  0  0  0  0  3  0  0  0  0  0  0
  136.3260  130.7130  146.6030 O   0  0  0  0  0  0  0  0  0  0  0  0
  137.0540  130.6500  147.1900 H   0  0  0  0  0  0  0  0  0  0  0  0
  137.1070  131.7120  143.9320 O   0  0  0  0  0  0  0  0  0  0  0  0
  137.3060  132.3300  142.6660 C   0  0  0  0  0  1  0  0  0  0  0  0
  1  5  1  0  0  0  0
  2  1  2  0  0  0  0
  3  4  2  0  0  0  0
  5  6  1  0  0  0  0
  5  3  1  0  0  0  0
  7  3  1  0  0  0  0
  7  8  1  0  0  0  0
  8  9  1  0  0  0  0
  9 10  1  0  0  0  0
 10 11  1  0  0  0  0
 11 12  1  0  0  0  0
 13 14  1  0  0  0  0
 14 12  1  0  0  0  0
 15  1  1  0  0  0  0
 16 15  1  0  0  0  0
 17 15  1  0  0  0  0
 17 18  1  0  0  0  0
 18 19  1  0  0  0  0
 19 20  2  0  0  0  0
 21 24  1  0  0  0  0
 21 20  1  0  0  0  0
 22 21  2  0  0  0  0
 23 22  1  0  0  0  0
 23 18  2  0  0  0  0
 24 25  1  0  0  0  0
 26 22  1  0  0  0  0
 27 26  1  0  0  0  0
M  END
>  <MODEL>
3

>  <REMARK>
 VINA RESULT:    -6.015     11.383     13.839
 INTER + INTRA:         -11.500
 INTER:                  -9.801
 INTRA:                  -1.699
 UNBOUND:                -1.089
  Name = CHEMBL309534
  15 active torsions:
  status: ('A' for Active; 'I' for Inactive)
    1  A    between atoms: C_1  and  C_2
    2  A    between atoms: C_2  and  C_3
    3  A    between atoms: C_3  and  C_4
    4  A    between atoms: C_4  and  C_5
    5  A    between atoms: C_5  and  C_6
    6  A    between atoms: C_6  and  C_7
    7  A    between atoms: C_7  and  C_8
    8  A    between atoms: C_8  and  C_9
    9  A    between atoms: N_11  and  C_12
   10  A    between atoms: C_12  and  N_14
   11  A    between atoms: N_14  and  C_15
   12  A    between atoms: C_15  and  C_16
   13  A    between atoms: C_19  and  O_20
   14  A    between atoms: C_21  and  O_22
   15  A    between atoms: O_22  and  C_23
                            x       y       z     vdW  Elec       q    Type
                         _______ _______ _______ _____ _____    ______ ____

>  <TORSDO>
F 13

>  <SCORE>
-6.015

>  <RMSD_LB>
11.383

>  <RMSD_UB>
13.839

$$$$
CHEMBL309534
 OpenBabel10172500063D

 27 27  0  0  0  0  0  0  0  0999 V2000
  147.2620  139.2350  155.1080 C   0  0  0  0  0  0  0  0  0  0  0  0
  148.0190  137.7710  155.3640 S   0  0  0  0  0  0  0  0  0  0  0  0
  144.7970  139.1480  154.6930 C   0  0  0  0  0  0  0  0  0  0  0  0
  143.6560  139.5510  155.0600 O   0  0  0  0  0  0  0  0  0  0  0  0
  145.9210  139.5650  155.3530 N   0  0  0  0  0  0  0  0  0  0  0  0
  145.7680  140.1810  156.1050 H   0  0  0  0  0  0  0  0  0  0  0  0
  144.9630  138.2580  153.4830 C   0  0  0  0  0  2  0  0  0  0  0  0
  143.8360  138.5290  152.4930 C   0  0  0  0  0  2  0  0  0  0  0  0
  142.9450  137.3400  152.1750 C   0  0  0  0  0  2  0  0  0  0  0  0
  141.8550  137.7730  151.1830 C   0  0  0  0  0  2  0  0  0  0  0  0
  140.4550  137.5130  151.7360 C   0  0  0  0  0  2  0  0  0  0  0  0
  139.4690  138.6090  151.3230 C   0  0  0  0  0  2  0  0  0  0  0  0
  139.4820  140.8010  150.0790 C   0  0  0  0  0  1  0  0  0  0  0  0
  139.9750  139.3640  150.0940 C   0  0  0  0  0  2  0  0  0  0  0  0
  147.9910  140.2950  154.6150 N   0  0  0  0  0  0  0  0  0  0  0  0
  148.9690  140.1940  154.5500 H   0  0  0  0  0  0  0  0  0  0  0  0
  147.4030  141.5600  154.1820 C   0  0  0  0  0  2  0  0  0  0  0  0
  146.8830  141.5330  152.7680 C   0  0  0  0  0  0  0  0  0  0  0  0
  145.9980  142.5120  152.2890 C   0  0  0  0  0  3  0  0  0  0  0  0
  145.5370  142.4500  150.9680 C   0  0  0  0  0  3  0  0  0  0  0  0
  145.9510  141.4260  150.1160 C   0  0  0  0  0  0  0  0  0  0  0  0
  146.8340  140.4410  150.5680 C   0  0  0  0  0  0  0  0  0  0  0  0
  147.2770  140.5100  151.8990 C   0  0  0  0  0  3  0  0  0  0  0  0
  145.4760  141.4180  148.8330 O   0  0  0  0  0  0  0  0  0  0  0  0
  144.8940  140.7390  148.5530 H   0  0  0  0  0  0  0  0  0  0  0  0
  147.3600  139.3880  149.8700 O   0  0  0  0  0  0  0  0  0  0  0  0
  146.6220  138.1720  149.8400 C   0  0  0  0  0  1  0  0  0  0  0  0
  1  5  1  0  0  0  0
  1  2  2  0  0  0  0
  3  4  2  0  0  0  0
  3  5  1  0  0  0  0
  5  6  1  0  0  0  0
  7  3  1  0  0  0  0
  8  7  1  0  0  0  0
  9  8  1  0  0  0  0
 10 11  1  0  0  0  0
 10  9  1  0  0  0  0
 12 11  1  0  0  0  0
 13 14  1  0  0  0  0
 14 12  1  0  0  0  0
 15  1  1  0  0  0  0
 16 15  1  0  0  0  0
 17 15  1  0  0  0  0
 18 17  1  0  0  0  0
 19 18  1  0  0  0  0
 20 19  2  0  0  0  0
 21 22  2  0  0  0  0
 21 20  1  0  0  0  0
 22 23  1  0  0  0  0
 23 18  2  0  0  0  0
 24 21  1  0  0  0  0
 25 24  1  0  0  0  0
 26 22  1  0  0  0  0
 27 26  1  0  0  0  0
M  END
>  <MODEL>
4

>  <REMARK>
 VINA RESULT:    -6.009      3.534      6.518
 INTER + INTRA:         -11.488
 INTER:                 -10.174
 INTRA:                  -1.314
 UNBOUND:                -1.089
  Name = CHEMBL309534
  15 active torsions:
  status: ('A' for Active; 'I' for Inactive)
    1  A    between atoms: C_1  and  C_2
    2  A    between atoms: C_2  and  C_3
    3  A    between atoms: C_3  and  C_4
    4  A    between atoms: C_4  and  C_5
    5  A    between atoms: C_5  and  C_6
    6  A    between atoms: C_6  and  C_7
    7  A    between atoms: C_7  and  C_8
    8  A    between atoms: C_8  and  C_9
    9  A    between atoms: N_11  and  C_12
   10  A    between atoms: C_12  and  N_14
   11  A    between atoms: N_14  and  C_15
   12  A    between atoms: C_15  and  C_16
   13  A    between atoms: C_19  and  O_20
   14  A    between atoms: C_21  and  O_22
   15  A    between atoms: O_22  and  C_23
                            x       y       z     vdW  Elec       q    Type
                         _______ _______ _______ _____ _____    ______ ____

>  <TORSDO>
F 13

>  <SCORE>
-6.009

>  <RMSD_LB>
3.534

>  <RMSD_UB>
6.518

$$$$
CHEMBL309534
 OpenBabel10172500063D

 27 27  0  0  0  0  0  0  0  0999 V2000
  138.8080  138.1480  153.2990 C   0  0  0  0  0  0  0  0  0  0  0  0
  138.9210  138.0340  151.6380 S   0  0  0  0  0  0  0  0  0  0  0  0
  140.8690  138.8590  154.5250 C   0  0  0  0  0  0  0  0  0  0  0  0
  141.3810  139.7030  155.3160 O   0  0  0  0  0  0  0  0  0  0  0  0
  139.5550  138.9680  154.1570 N   0  0  0  0  0  0  0  0  0  0  0  0
  139.0660  139.7280  154.5490 H   0  0  0  0  0  0  0  0  0  0  0  0
  141.6610  137.6760  154.0190 C   0  0  0  0  0  2  0  0  0  0  0  0
  143.1060  138.0960  153.7770 C   0  0  0  0  0  2  0  0  0  0  0  0
  143.7900  137.4330  152.5940 C   0  0  0  0  0  2  0  0  0  0  0  0
  145.3120  137.5930  152.7310 C   0  0  0  0  0  2  0  0  0  0  0  0
  145.8290  136.9680  154.0250 C   0  0  0  0  0  2  0  0  0  0  0  0
  146.6490  137.9630  154.8490 C   0  0  0  0  0  2  0  0  0  0  0  0
  148.9060  137.7170  153.7540 C   0  0  0  0  0  1  0  0  0  0  0  0
  148.0900  137.4800  155.0140 C   0  0  0  0  0  2  0  0  0  0  0  0
  137.8750  137.3850  153.9660 N   0  0  0  0  0  0  0  0  0  0  0  0
  137.2070  136.8980  153.4320 H   0  0  0  0  0  0  0  0  0  0  0  0
  137.8160  137.2560  155.4200 C   0  0  0  0  0  2  0  0  0  0  0  0
  136.6820  136.3890  155.9040 C   0  0  0  0  0  0  0  0  0  0  0  0
  136.5710  136.0030  157.2500 C   0  0  0  0  0  3  0  0  0  0  0  0
  135.5030  135.1960  157.6590 C   0  0  0  0  0  3  0  0  0  0  0  0
  134.5400  134.7700  156.7430 C   0  0  0  0  0  0  0  0  0  0  0  0
  134.6270  135.1430  155.3990 C   0  0  0  0  0  0  0  0  0  0  0  0
  135.7110  135.9420  155.0020 C   0  0  0  0  0  3  0  0  0  0  0  0
  133.5130  133.9890  157.1980 O   0  0  0  0  0  0  0  0  0  0  0  0
  132.6280  134.2900  157.1250 H   0  0  0  0  0  0  0  0  0  0  0  0
  133.7670  134.8410  154.3780 O   0  0  0  0  0  0  0  0  0  0  0  0
  134.3160  134.3120  153.1770 C   0  0  0  0  0  1  0  0  0  0  0  0
  1 15  1  0  0  0  0
  1  5  1  0  0  0  0
  2  1  2  0  0  0  0
  3  4  2  0  0  0  0
  5  3  1  0  0  0  0
  5  6  1  0  0  0  0
  7  3  1  0  0  0  0
  8  7  1  0  0  0  0
  9 10  1  0  0  0  0
  9  8  1  0  0  0  0
 10 11  1  0  0  0  0
 11 12  1  0  0  0  0
 12 14  1  0  0  0  0
 13 14  1  0  0  0  0
 15 17  1  0  0  0  0
 16 15  1  0  0  0  0
 17 18  1  0  0  0  0
 18 19  1  0  0  0  0
 19 20  2  0  0  0  0
 21 24  1  0  0  0  0
 21 20  1  0  0  0  0
 22 21  2  0  0  0  0
 23 22  1  0  0  0  0
 23 18  2  0  0  0  0
 25 24  1  0  0  0  0
 26 22  1  0  0  0  0
 27 26  1  0  0  0  0
M  END
>  <MODEL>
5

>  <REMARK>
 VINA RESULT:    -5.919      7.566      9.273
 INTER + INTRA:         -11.334
 INTER:                 -10.661
 INTRA:                  -0.673
 UNBOUND:                -1.089
  Name = CHEMBL309534
  15 active torsions:
  status: ('A' for Active; 'I' for Inactive)
    1  A    between atoms: C_1  and  C_2
    2  A    between atoms: C_2  and  C_3
    3  A    between atoms: C_3  and  C_4
    4  A    between atoms: C_4  and  C_5
    5  A    between atoms: C_5  and  C_6
    6  A    between atoms: C_6  and  C_7
    7  A    between atoms: C_7  and  C_8
    8  A    between atoms: C_8  and  C_9
    9  A    between atoms: N_11  and  C_12
   10  A    between atoms: C_12  and  N_14
   11  A    between atoms: N_14  and  C_15
   12  A    between atoms: C_15  and  C_16
   13  A    between atoms: C_19  and  O_20
   14  A    between atoms: C_21  and  O_22
   15  A    between atoms: O_22  and  C_23
                            x       y       z     vdW  Elec       q    Type
                         _______ _______ _______ _____ _____    ______ ____

>  <TORSDO>
F 13

>  <SCORE>
-5.919

>  <RMSD_LB>
7.566

>  <RMSD_UB>
9.273

$$$$
CHEMBL309534
 OpenBabel10172500063D

 27 27  0  0  0  0  0  0  0  0999 V2000
  141.4650  139.1160  149.2060 C   0  0  0  0  0  0  0  0  0  0  0  0
  140.1770  140.0570  149.6920 S   0  0  0  0  0  0  0  0  0  0  0  0
  143.8720  139.5860  148.7110 C   0  0  0  0  0  0  0  0  0  0  0  0
  144.7140  139.9390  147.8360 O   0  0  0  0  0  0  0  0  0  0  0  0
  142.5450  139.4890  148.3920 N   0  0  0  0  0  0  0  0  0  0  0  0
  142.3150  139.7110  147.4610 H   0  0  0  0  0  0  0  0  0  0  0  0
  144.2880  139.3300  150.1420 C   0  0  0  0  0  2  0  0  0  0  0  0
  144.3790  140.6530  150.8910 C   0  0  0  0  0  2  0  0  0  0  0  0
  145.7860  141.1730  151.1320 C   0  0  0  0  0  2  0  0  0  0  0  0
  145.7170  142.4660  151.9580 C   0  0  0  0  0  2  0  0  0  0  0  0
  146.4460  142.3220  153.2910 C   0  0  0  0  0  2  0  0  0  0  0  0
  146.4430  140.8740  153.7860 C   0  0  0  0  0  2  0  0  0  0  0  0
  148.8060  141.6240  154.2440 C   0  0  0  0  0  1  0  0  0  0  0  0
  147.8360  140.4540  154.2570 C   0  0  0  0  0  2  0  0  0  0  0  0
  141.5480  137.8100  149.6370 N   0  0  0  0  0  0  0  0  0  0  0  0
  142.2210  137.2260  149.2190 H   0  0  0  0  0  0  0  0  0  0  0  0
  140.6950  137.2370  150.6760 C   0  0  0  0  0  2  0  0  0  0  0  0
  141.1010  137.6270  152.0740 C   0  0  0  0  0  0  0  0  0  0  0  0
  142.4200  137.4720  152.5300 C   0  0  0  0  0  3  0  0  0  0  0  0
  142.7550  137.8450  153.8370 C   0  0  0  0  0  3  0  0  0  0  0  0
  141.7930  138.3770  154.6960 C   0  0  0  0  0  0  0  0  0  0  0  0
  140.4730  138.5430  154.2650 C   0  0  0  0  0  0  0  0  0  0  0  0
  140.1500  138.1520  152.9560 C   0  0  0  0  0  3  0  0  0  0  0  0
  142.1770  138.7320  155.9600 O   0  0  0  0  0  0  0  0  0  0  0  0
  142.0020  138.1600  156.6810 H   0  0  0  0  0  0  0  0  0  0  0  0
  139.4150  139.0660  154.9570 O   0  0  0  0  0  0  0  0  0  0  0  0
  138.5240  138.1620  155.5990 C   0  0  0  0  0  1  0  0  0  0  0  0
  1 15  1  0  0  0  0
  1  2  2  0  0  0  0
  3  7  1  0  0  0  0
  4  3  2  0  0  0  0
  5  3  1  0  0  0  0
  5  1  1  0  0  0  0
  6  5  1  0  0  0  0
  7  8  1  0  0  0  0
  8  9  1  0  0  0  0
  9 10  1  0  0  0  0
 10 11  1  0  0  0  0
 11 12  1  0  0  0  0
 12 14  1  0  0  0  0
 13 14  1  0  0  0  0
 15 17  1  0  0  0  0
 16 15  1  0  0  0  0
 17 18  1  0  0  0  0
 18 19  2  0  0  0  0
 18 23  1  0  0  0  0
 19 20  1  0  0  0  0
 20 21  2  0  0  0  0
 21 24  1  0  0  0  0
 22 21  1  0  0  0  0
 22 26  1  0  0  0  0
 23 22  2  0  0  0  0
 24 25  1  0  0  0  0
 26 27  1  0  0  0  0
M  END
>  <MODEL>
6

>  <REMARK>
 VINA RESULT:    -5.895      3.454      4.624
 INTER + INTRA:         -11.291
 INTER:                 -10.203
 INTRA:                  -1.089
 UNBOUND:                -1.089
  Name = CHEMBL309534
  15 active torsions:
  status: ('A' for Active; 'I' for Inactive)
    1  A    between atoms: C_1  and  C_2
    2  A    between atoms: C_2  and  C_3
    3  A    between atoms: C_3  and  C_4
    4  A    between atoms: C_4  and  C_5
    5  A    between atoms: C_5  and  C_6
    6  A    between atoms: C_6  and  C_7
    7  A    between atoms: C_7  and  C_8
    8  A    between atoms: C_8  and  C_9
    9  A    between atoms: N_11  and  C_12
   10  A    between atoms: C_12  and  N_14
   11  A    between atoms: N_14  and  C_15
   12  A    between atoms: C_15  and  C_16
   13  A    between atoms: C_19  and  O_20
   14  A    between atoms: C_21  and  O_22
   15  A    between atoms: O_22  and  C_23
                            x       y       z     vdW  Elec       q    Type
                         _______ _______ _______ _____ _____    ______ ____

>  <TORSDO>
F 13

>  <SCORE>
-5.895

>  <RMSD_LB>
3.454

>  <RMSD_UB>
4.624

$$$$
CHEMBL309534
 OpenBabel10172500063D

 27 27  0  0  0  0  0  0  0  0999 V2000
  144.4750  139.2690  150.4050 C   0  0  0  0  0  0  0  0  0  0  0  0
  144.8160  138.2910  149.0980 S   0  0  0  0  0  0  0  0  0  0  0  0
  145.5230  141.4930  150.8700 C   0  0  0  0  0  0  0  0  0  0  0  0
  145.3730  142.7480  150.8500 O   0  0  0  0  0  0  0  0  0  0  0  0
  144.5080  140.6700  150.4620 N   0  0  0  0  0  0  0  0  0  0  0  0
  143.6860  141.1250  150.1670 H   0  0  0  0  0  0  0  0  0  0  0  0
  146.7880  140.8620  151.4040 C   0  0  0  0  0  2  0  0  0  0  0  0
  147.5620  141.8870  152.2230 C   0  0  0  0  0  2  0  0  0  0  0  0
  147.2260  141.9310  153.7040 C   0  0  0  0  0  2  0  0  0  0  0  0
  147.0020  140.5010  154.2180 C   0  0  0  0  0  2  0  0  0  0  0  0
  148.3250  139.7740  154.4520 C   0  0  0  0  0  2  0  0  0  0  0  0
  148.2030  138.2730  154.1830 C   0  0  0  0  0  2  0  0  0  0  0  0
  146.2090  136.7450  153.9740 C   0  0  0  0  0  1  0  0  0  0  0  0
  146.9760  137.6900  154.8840 C   0  0  0  0  0  2  0  0  0  0  0  0
  144.0910  138.6950  151.5960 N   0  0  0  0  0  0  0  0  0  0  0  0
  144.3440  139.1500  152.4320 H   0  0  0  0  0  0  0  0  0  0  0  0
  143.3330  137.4500  151.6970 C   0  0  0  0  0  2  0  0  0  0  0  0
  141.9050  137.6460  152.1360 C   0  0  0  0  0  0  0  0  0  0  0  0
  140.8270  137.4140  151.2660 C   0  0  0  0  0  3  0  0  0  0  0  0
  139.5150  137.6090  151.7130 C   0  0  0  0  0  3  0  0  0  0  0  0
  139.2610  138.0280  153.0200 C   0  0  0  0  0  0  0  0  0  0  0  0
  140.3170  138.2630  153.9060 C   0  0  0  0  0  0  0  0  0  0  0  0
  141.6270  138.0750  153.4380 C   0  0  0  0  0  3  0  0  0  0  0  0
  137.9600  138.1940  153.4060 O   0  0  0  0  0  0  0  0  0  0  0  0
  137.2840  138.2600  152.7600 H   0  0  0  0  0  0  0  0  0  0  0  0
  140.2540  138.6490  155.2170 O   0  0  0  0  0  0  0  0  0  0  0  0
  139.5420  137.8170  156.1240 C   0  0  0  0  0  1  0  0  0  0  0  0
  1  5  1  0  0  0  0
  1 15  1  0  0  0  0
  2  1  2  0  0  0  0
  3  7  1  0  0  0  0
  4  3  2  0  0  0  0
  5  3  1  0  0  0  0
  6  5  1  0  0  0  0
  7  8  1  0  0  0  0
  8  9  1  0  0  0  0
  9 10  1  0  0  0  0
 10 11  1  0  0  0  0
 12 11  1  0  0  0  0
 12 14  1  0  0  0  0
 13 14  1  0  0  0  0
 15 17  1  0  0  0  0
 15 16  1  0  0  0  0
 17 18  1  0  0  0  0
 18 23  1  0  0  0  0
 19 20  1  0  0  0  0
 19 18  2  0  0  0  0
 20 21  2  0  0  0  0
 21 24  1  0  0  0  0
 21 22  1  0  0  0  0
 22 26  1  0  0  0  0
 23 22  2  0  0  0  0
 25 24  1  0  0  0  0
 26 27  1  0  0  0  0
M  END
>  <MODEL>
7

>  <REMARK>
 VINA RESULT:    -5.893      3.534      5.085
 INTER + INTRA:         -11.288
 INTER:                 -10.328
 INTRA:                  -0.960
 UNBOUND:                -1.089
  Name = CHEMBL309534
  15 active torsions:
  status: ('A' for Active; 'I' for Inactive)
    1  A    between atoms: C_1  and  C_2
    2  A    between atoms: C_2  and  C_3
    3  A    between atoms: C_3  and  C_4
    4  A    between atoms: C_4  and  C_5
    5  A    between atoms: C_5  and  C_6
    6  A    between atoms: C_6  and  C_7
    7  A    between atoms: C_7  and  C_8
    8  A    between atoms: C_8  and  C_9
    9  A    between atoms: N_11  and  C_12
   10  A    between atoms: C_12  and  N_14
   11  A    between atoms: N_14  and  C_15
   12  A    between atoms: C_15  and  C_16
   13  A    between atoms: C_19  and  O_20
   14  A    between atoms: C_21  and  O_22
   15  A    between atoms: O_22  and  C_23
                            x       y       z     vdW  Elec       q    Type
                         _______ _______ _______ _____ _____    ______ ____

>  <TORSDO>
F 13

>  <SCORE>
-5.893

>  <RMSD_LB>
3.534

>  <RMSD_UB>
5.085

$$$$
CHEMBL309534
 OpenBabel10172500063D

 27 27  0  0  0  0  0  0  0  0999 V2000
  144.5490  138.2190  151.6200 C   0  0  0  0  0  0  0  0  0  0  0  0
  145.6980  138.3330  150.4150 S   0  0  0  0  0  0  0  0  0  0  0  0
  145.0530  138.7990  154.0010 C   0  0  0  0  0  0  0  0  0  0  0  0
  144.8450  139.6080  154.9510 O   0  0  0  0  0  0  0  0  0  0  0  0
  144.4480  138.9900  152.7880 N   0  0  0  0  0  0  0  0  0  0  0  0
  143.8610  139.7770  152.7250 H   0  0  0  0  0  0  0  0  0  0  0  0
  145.9120  137.5700  154.1900 C   0  0  0  0  0  2  0  0  0  0  0  0
  147.3400  137.9910  154.5130 C   0  0  0  0  0  2  0  0  0  0  0  0
  148.2630  138.1440  153.3160 C   0  0  0  0  0  2  0  0  0  0  0  0
  148.5380  139.6360  153.0720 C   0  0  0  0  0  2  0  0  0  0  0  0
  148.4110  140.4480  154.3590 C   0  0  0  0  0  2  0  0  0  0  0  0
  147.6370  141.7490  154.1350 C   0  0  0  0  0  2  0  0  0  0  0  0
  145.9110  142.3260  152.3900 C   0  0  0  0  0  1  0  0  0  0  0  0
  147.3670  141.9750  152.6470 C   0  0  0  0  0  2  0  0  0  0  0  0
  143.5400  137.2890  151.5050 N   0  0  0  0  0  0  0  0  0  0  0  0
  143.5400  136.5270  152.1300 H   0  0  0  0  0  0  0  0  0  0  0  0
  142.4720  137.3600  150.5120 C   0  0  0  0  0  2  0  0  0  0  0  0
  141.0910  137.4210  151.1130 C   0  0  0  0  0  0  0  0  0  0  0  0
  140.8820  137.8120  152.4450 C   0  0  0  0  0  3  0  0  0  0  0  0
  139.5840  137.8540  152.9650 C   0  0  0  0  0  3  0  0  0  0  0  0
  138.4860  137.5160  152.1720 C   0  0  0  0  0  0  0  0  0  0  0  0
  138.6670  137.1260  150.8420 C   0  0  0  0  0  0  0  0  0  0  0  0
  139.9770  137.0760  150.3390 C   0  0  0  0  0  3  0  0  0  0  0  0
  137.2380  137.5830  152.7290 O   0  0  0  0  0  0  0  0  0  0  0  0
  137.0490  137.1050  153.5130 H   0  0  0  0  0  0  0  0  0  0  0  0
  137.7140  136.7870  149.9210 O   0  0  0  0  0  0  0  0  0  0  0  0
  137.0960  137.8340  149.1830 C   0  0  0  0  0  1  0  0  0  0  0  0
  1  5  1  0  0  0  0
  2  1  2  0  0  0  0
  3  7  1  0  0  0  0
  3  4  2  0  0  0  0
  5  3  1  0  0  0  0
  6  5  1  0  0  0  0
  7  8  1  0  0  0  0
  9  8  1  0  0  0  0
 10  9  1  0  0  0  0
 10 11  1  0  0  0  0
 12 11  1  0  0  0  0
 13 14  1  0  0  0  0
 14 12  1  0  0  0  0
 15  1  1  0  0  0  0
 15 16  1  0  0  0  0
 17 18  1  0  0  0  0
 17 15  1  0  0  0  0
 18 19  1  0  0  0  0
 19 20  2  0  0  0  0
 21 24  1  0  0  0  0
 21 20  1  0  0  0  0
 22 21  2  0  0  0  0
 23 22  1  0  0  0  0
 23 18  2  0  0  0  0
 24 25  1  0  0  0  0
 26 22  1  0  0  0  0
 27 26  1  0  0  0  0
M  END
>  <MODEL>
8

>  <REMARK>
 VINA RESULT:    -5.892      3.963      6.274
 INTER + INTRA:         -11.286
 INTER:                  -9.780
 INTRA:                  -1.506
 UNBOUND:                -1.089
  Name = CHEMBL309534
  15 active torsions:
  status: ('A' for Active; 'I' for Inactive)
    1  A    between atoms: C_1  and  C_2
    2  A    between atoms: C_2  and  C_3
    3  A    between atoms: C_3  and  C_4
    4  A    between atoms: C_4  and  C_5
    5  A    between atoms: C_5  and  C_6
    6  A    between atoms: C_6  and  C_7
    7  A    between atoms: C_7  and  C_8
    8  A    between atoms: C_8  and  C_9
    9  A    between atoms: N_11  and  C_12
   10  A    between atoms: C_12  and  N_14
   11  A    between atoms: N_14  and  C_15
   12  A    between atoms: C_15  and  C_16
   13  A    between atoms: C_19  and  O_20
   14  A    between atoms: C_21  and  O_22
   15  A    between atoms: O_22  and  C_23
                            x       y       z     vdW  Elec       q    Type
                         _______ _______ _______ _____ _____    ______ ____

>  <TORSDO>
F 13

>  <SCORE>
-5.892

>  <RMSD_LB>
3.963

>  <RMSD_UB>
6.274

$$$$
CHEMBL309534
 OpenBabel10172500063D

 27 27  0  0  0  0  0  0  0  0999 V2000
  143.4800  139.0500  152.4680 C   0  0  0  0  0  0  0  0  0  0  0  0
  143.9730  137.5350  151.9740 S   0  0  0  0  0  0  0  0  0  0  0  0
  141.5710  139.0230  154.0860 C   0  0  0  0  0  0  0  0  0  0  0  0
  141.1340  139.4320  155.1990 O   0  0  0  0  0  0  0  0  0  0  0  0
  142.8160  139.3940  153.6550 N   0  0  0  0  0  0  0  0  0  0  0  0
  143.3170  139.9850  154.2630 H   0  0  0  0  0  0  0  0  0  0  0  0
  140.7180  138.1750  153.1710 C   0  0  0  0  0  2  0  0  0  0  0  0
  139.2670  138.6330  153.2580 C   0  0  0  0  0  2  0  0  0  0  0  0
  138.2410  137.6660  152.6940 C   0  0  0  0  0  2  0  0  0  0  0  0
  138.5990  137.3380  151.2360 C   0  0  0  0  0  2  0  0  0  0  0  0
  138.4280  138.5540  150.3280 C   0  0  0  0  0  2  0  0  0  0  0  0
  139.5010  138.6040  149.2380 C   0  0  0  0  0  2  0  0  0  0  0  0
  141.8760  139.3660  148.8760 C   0  0  0  0  0  1  0  0  0  0  0  0
  140.5510  139.6690  149.5540 C   0  0  0  0  0  2  0  0  0  0  0  0
  143.7400  140.1400  151.6670 N   0  0  0  0  0  0  0  0  0  0  0  0
  142.9910  140.7380  151.4410 H   0  0  0  0  0  0  0  0  0  0  0  0
  145.0600  140.4610  151.1290 C   0  0  0  0  0  2  0  0  0  0  0  0
  146.1040  140.6970  152.1900 C   0  0  0  0  0  0  0  0  0  0  0  0
  146.1190  141.8700  152.9620 C   0  0  0  0  0  3  0  0  0  0  0  0
  147.1080  142.0520  153.9370 C   0  0  0  0  0  3  0  0  0  0  0  0
  148.0800  141.0750  154.1560 C   0  0  0  0  0  0  0  0  0  0  0  0
  148.0850  139.8980  153.4020 C   0  0  0  0  0  0  0  0  0  0  0  0
  147.0950  139.7370  152.4200 C   0  0  0  0  0  3  0  0  0  0  0  0
  149.0180  141.3000  155.1270 O   0  0  0  0  0  0  0  0  0  0  0  0
  148.9430  142.0490  155.6850 H   0  0  0  0  0  0  0  0  0  0  0  0
  148.9390  138.8330  153.4970 O   0  0  0  0  0  0  0  0  0  0  0  0
  148.4880  137.6750  154.1890 C   0  0  0  0  0  1  0  0  0  0  0  0
  1  5  1  0  0  0  0
  2  1  2  0  0  0  0
  3  4  2  0  0  0  0
  5  3  1  0  0  0  0
  5  6  1  0  0  0  0
  7  8  1  0  0  0  0
  7  3  1  0  0  0  0
  9  8  1  0  0  0  0
 10  9  1  0  0  0  0
 11 10  1  0  0  0  0
 12 14  1  0  0  0  0
 12 11  1  0  0  0  0
 13 14  1  0  0  0  0
 15  1  1  0  0  0  0
 16 15  1  0  0  0  0
 17 15  1  0  0  0  0
 17 18  1  0  0  0  0
 18 23  2  0  0  0  0
 18 19  1  0  0  0  0
 19 20  2  0  0  0  0
 20 21  1  0  0  0  0
 21 24  1  0  0  0  0
 22 26  1  0  0  0  0
 22 21  2  0  0  0  0
 23 22  1  0  0  0  0
 24 25  1  0  0  0  0
 26 27  1  0  0  0  0
M  END
>  <MODEL>
9

>  <REMARK>
 VINA RESULT:    -5.768      3.821      6.130
 INTER + INTRA:         -11.072
 INTER:                  -9.947
 INTRA:                  -1.125
 UNBOUND:                -1.089
  Name = CHEMBL309534
  15 active torsions:
  status: ('A' for Active; 'I' for Inactive)
    1  A    between atoms: C_1  and  C_2
    2  A    between atoms: C_2  and  C_3
    3  A    between atoms: C_3  and  C_4
    4  A    between atoms: C_4  and  C_5
    5  A    between atoms: C_5  and  C_6
    6  A    between atoms: C_6  and  C_7
    7  A    between atoms: C_7  and  C_8
    8  A    between atoms: C_8  and  C_9
    9  A    between atoms: N_11  and  C_12
   10  A    between atoms: C_12  and  N_14
   11  A    between atoms: N_14  and  C_15
   12  A    between atoms: C_15  and  C_16
   13  A    between atoms: C_19  and  O_20
   14  A    between atoms: C_21  and  O_22
   15  A    between atoms: O_22  and  C_23
                            x       y       z     vdW  Elec       q    Type
                         _______ _______ _______ _____ _____    ______ ____

>  <TORSDO>
F 13

>  <SCORE>
-5.768

>  <RMSD_LB>
3.821

>  <RMSD_UB>
6.130

$$$$
