CHEMBL4459363
 OpenBabel10162523353D

 25 26  0  0  0  0  0  0  0  0999 V2000
  134.8740  134.9510  154.2200 N   0  0  0  0  0  0  0  0  0  0  0  0
  134.3190  133.7370  153.8840 C   0  0  0  0  0  0  0  0  0  0  0  0
  134.2440  132.7540  154.6190 O   0  0  0  0  0  0  0  0  0  0  0  0
  133.8500  133.6750  152.5960 N   0  0  0  0  0  0  0  0  0  0  0  0
  135.0200  135.6230  153.5160 H   0  0  0  0  0  0  0  0  0  0  0  0
  133.4620  132.8220  152.2960 H   0  0  0  0  0  0  0  0  0  0  0  0
  136.0570  135.4460  158.1930 C   0  0  0  0  0  0  0  0  0  0  0  0
  134.8080  134.9040  157.8780 C   0  0  0  0  0  3  0  0  0  0  0  0
  134.3980  134.8150  156.5500 C   0  0  0  0  0  3  0  0  0  0  0  0
  135.2380  135.2550  155.5350 C   0  0  0  0  0  0  0  0  0  0  0  0
  136.4960  135.7790  155.8300 C   0  0  0  0  0  3  0  0  0  0  0  0
  136.8950  135.8880  157.1640 C   0  0  0  0  0  3  0  0  0  0  0  0
  136.2590  136.7980  160.1270 C   0  0  0  0  0  1  0  0  0  0  0  0
  136.5650  135.5810  159.4570 O   0  0  0  0  0  0  0  0  0  0  0  0
  133.8810  134.7600  151.6440 C   0  0  0  0  0  2  0  0  0  0  0  0
  133.7090  134.3250  150.2230 C   0  0  0  0  0  0  0  0  0  0  0  0
  133.8280  132.9820  149.8580 C   0  0  0  0  0  3  0  0  0  0  0  0
  133.7450  132.6110  148.5140 C   0  0  0  0  0  3  0  0  0  0  0  0
  133.5340  133.5820  147.5290 C   0  0  0  0  0  0  0  0  0  0  0  0
  133.3910  134.9270  147.8820 C   0  0  0  0  0  0  0  0  0  0  0  0
  133.4950  135.2880  149.2260 C   0  0  0  0  0  3  0  0  0  0  0  0
  133.5050  133.1950  146.2190 O   0  0  0  0  0  0  0  0  0  0  0  0
  134.1290  132.5720  145.9010 H   0  0  0  0  0  0  0  0  0  0  0  0
  133.2140  135.9920  147.0420 O   0  0  0  0  0  0  0  0  0  0  0  0
  132.4730  137.0810  147.5760 C   0  0  0  0  0  1  0  0  0  0  0  0
  1 10  1  0  0  0  0
  2  1  1  0  0  0  0
  2  3  2  0  0  0  0
  4  2  1  0  0  0  0
  5  1  1  0  0  0  0
  6  4  1  0  0  0  0
  7 14  1  0  0  0  0
  8  7  1  0  0  0  0
  9  8  2  0  0  0  0
 10 11  2  0  0  0  0
 10  9  1  0  0  0  0
 11 12  1  0  0  0  0
 12  7  2  0  0  0  0
 14 13  1  0  0  0  0
 15  4  1  0  0  0  0
 16 15  1  0  0  0  0
 17 16  1  0  0  0  0
 18 17  2  0  0  0  0
 19 20  2  0  0  0  0
 19 18  1  0  0  0  0
 20 21  1  0  0  0  0
 21 16  2  0  0  0  0
 22 19  1  0  0  0  0
 23 22  1  0  0  0  0
 24 25  1  0  0  0  0
 24 20  1  0  0  0  0
M  END
>  <MODEL>
1

>  <REMARK>
 VINA RESULT:    -7.435      0.000      0.000
 INTER + INTRA:         -10.258
 INTER:                 -10.326
 INTRA:                   0.068
 UNBOUND:                -0.432
  Name = CHEMBL4459363
  8 active torsions:
  status: ('A' for Active; 'I' for Inactive)
    1  A    between atoms: C_1  and  O_2
    2  A    between atoms: O_2  and  C_3
    3  A    between atoms: C_6  and  N_7
    4  A    between atoms: N_10  and  C_11
    5  A    between atoms: C_11  and  C_12
    6  A    between atoms: C_15  and  O_16
    7  A    between atoms: C_17  and  O_18
    8  A    between atoms: O_18  and  C_19
                            x       y       z     vdW  Elec       q    Type
                         _______ _______ _______ _____ _____    ______ ____

>  <TORSDO>
F 6

>  <SCORE>
-7.435

>  <RMSD_LB>
0.000

>  <RMSD_UB>
0.000

$$$$
CHEMBL4459363
 OpenBabel10162523353D

 25 26  0  0  0  0  0  0  0  0999 V2000
  135.6190  135.3860  153.6550 N   0  0  0  0  0  0  0  0  0  0  0  0
  134.2650  135.5950  153.7910 C   0  0  0  0  0  0  0  0  0  0  0  0
  133.7340  136.3580  154.5960 O   0  0  0  0  0  0  0  0  0  0  0  0
  133.4960  134.8400  152.9410 N   0  0  0  0  0  0  0  0  0  0  0  0
  135.9350  134.6470  153.0860 H   0  0  0  0  0  0  0  0  0  0  0  0
  132.5190  134.9350  153.0110 H   0  0  0  0  0  0  0  0  0  0  0  0
  138.6890  137.4660  155.5720 C   0  0  0  0  0  0  0  0  0  0  0  0
  137.9300  136.5130  156.2570 C   0  0  0  0  0  3  0  0  0  0  0  0
  136.8620  135.8820  155.6250 C   0  0  0  0  0  3  0  0  0  0  0  0
  136.5570  136.1920  154.3060 C   0  0  0  0  0  0  0  0  0  0  0  0
  137.3150  137.1250  153.6010 C   0  0  0  0  0  3  0  0  0  0  0  0
  138.3730  137.7730  154.2450 C   0  0  0  0  0  3  0  0  0  0  0  0
  140.7880  138.4860  155.1660 C   0  0  0  0  0  1  0  0  0  0  0  0
  139.7590  138.1460  156.0880 O   0  0  0  0  0  0  0  0  0  0  0  0
  134.0030  133.9160  151.9560 C   0  0  0  0  0  2  0  0  0  0  0  0
  133.6500  134.2750  150.5480 C   0  0  0  0  0  0  0  0  0  0  0  0
  132.9440  133.3890  149.7300 C   0  0  0  0  0  3  0  0  0  0  0  0
  132.6980  133.7130  148.3940 C   0  0  0  0  0  3  0  0  0  0  0  0
  133.1490  134.9290  147.8710 C   0  0  0  0  0  0  0  0  0  0  0  0
  133.8360  135.8350  148.6830 C   0  0  0  0  0  0  0  0  0  0  0  0
  134.0930  135.4920  150.0120 C   0  0  0  0  0  3  0  0  0  0  0  0
  132.9340  135.1980  146.5490 O   0  0  0  0  0  0  0  0  0  0  0  0
  133.6630  135.3060  145.9690 H   0  0  0  0  0  0  0  0  0  0  0  0
  134.3670  137.0420  148.3180 O   0  0  0  0  0  0  0  0  0  0  0  0
  135.7290  137.2480  148.6700 C   0  0  0  0  0  1  0  0  0  0  0  0
  1  2  1  0  0  0  0
  1 10  1  0  0  0  0
  2  3  2  0  0  0  0
  4  6  1  0  0  0  0
  4  2  1  0  0  0  0
  5  1  1  0  0  0  0
  7 14  1  0  0  0  0
  7  8  1  0  0  0  0
  9  8  2  0  0  0  0
 10  9  1  0  0  0  0
 11 12  1  0  0  0  0
 11 10  2  0  0  0  0
 12  7  2  0  0  0  0
 13 14  1  0  0  0  0
 15  4  1  0  0  0  0
 16 15  1  0  0  0  0
 17 16  2  0  0  0  0
 18 17  1  0  0  0  0
 19 18  2  0  0  0  0
 19 20  1  0  0  0  0
 20 21  2  0  0  0  0
 21 16  1  0  0  0  0
 22 19  1  0  0  0  0
 23 22  1  0  0  0  0
 24 25  1  0  0  0  0
 24 20  1  0  0  0  0
M  END
>  <MODEL>
2

>  <REMARK>
 VINA RESULT:    -7.248      2.363      2.951
 INTER + INTRA:         -10.010
 INTER:                  -9.478
 INTRA:                  -0.532
 UNBOUND:                -0.432
  Name = CHEMBL4459363
  8 active torsions:
  status: ('A' for Active; 'I' for Inactive)
    1  A    between atoms: C_1  and  O_2
    2  A    between atoms: O_2  and  C_3
    3  A    between atoms: C_6  and  N_7
    4  A    between atoms: N_10  and  C_11
    5  A    between atoms: C_11  and  C_12
    6  A    between atoms: C_15  and  O_16
    7  A    between atoms: C_17  and  O_18
    8  A    between atoms: O_18  and  C_19
                            x       y       z     vdW  Elec       q    Type
                         _______ _______ _______ _____ _____    ______ ____

>  <TORSDO>
F 6

>  <SCORE>
-7.248

>  <RMSD_LB>
2.363

>  <RMSD_UB>
2.951

$$$$
CHEMBL4459363
 OpenBabel10162523353D

 25 26  0  0  0  0  0  0  0  0999 V2000
  138.5830  137.4740  155.8800 N   0  0  0  0  0  0  0  0  0  0  0  0
  138.0620  138.5200  155.1510 C   0  0  0  0  0  0  0  0  0  0  0  0
  136.9510  139.0220  155.3090 O   0  0  0  0  0  0  0  0  0  0  0  0
  138.8950  138.9790  154.1610 N   0  0  0  0  0  0  0  0  0  0  0  0
  139.4170  137.0480  155.5780 H   0  0  0  0  0  0  0  0  0  0  0  0
  138.5640  139.7120  153.5950 H   0  0  0  0  0  0  0  0  0  0  0  0
  136.4250  136.3670  159.2780 C   0  0  0  0  0  0  0  0  0  0  0  0
  137.2940  137.4610  159.3040 C   0  0  0  0  0  3  0  0  0  0  0  0
  138.0620  137.7720  158.1850 C   0  0  0  0  0  3  0  0  0  0  0  0
  137.9560  136.9990  157.0350 C   0  0  0  0  0  0  0  0  0  0  0  0
  137.0800  135.9160  156.9850 C   0  0  0  0  0  3  0  0  0  0  0  0
  136.3260  135.5940  158.1160 C   0  0  0  0  0  3  0  0  0  0  0  0
  134.2810  135.6350  159.9700 C   0  0  0  0  0  1  0  0  0  0  0  0
  135.6210  135.9690  160.3120 O   0  0  0  0  0  0  0  0  0  0  0  0
  140.2180  138.4720  153.8810 C   0  0  0  0  0  2  0  0  0  0  0  0
  140.3640  137.8770  152.5180 C   0  0  0  0  0  0  0  0  0  0  0  0
  141.6140  137.4880  152.0290 C   0  0  0  0  0  3  0  0  0  0  0  0
  141.7370  137.0110  150.7220 C   0  0  0  0  0  3  0  0  0  0  0  0
  140.6090  136.9120  149.9010 C   0  0  0  0  0  0  0  0  0  0  0  0
  139.3500  137.2750  150.3840 C   0  0  0  0  0  0  0  0  0  0  0  0
  139.2410  137.7690  151.6850 C   0  0  0  0  0  3  0  0  0  0  0  0
  140.7690  136.4860  148.6120 O   0  0  0  0  0  0  0  0  0  0  0  0
  140.3620  135.6910  148.3280 H   0  0  0  0  0  0  0  0  0  0  0  0
  138.1640  137.2670  149.7020 O   0  0  0  0  0  0  0  0  0  0  0  0
  137.6460  138.5440  149.3520 C   0  0  0  0  0  1  0  0  0  0  0  0
  1 10  1  0  0  0  0
  2  3  2  0  0  0  0
  2  1  1  0  0  0  0
  4  2  1  0  0  0  0
  5  1  1  0  0  0  0
  6  4  1  0  0  0  0
  7  8  1  0  0  0  0
  7 14  1  0  0  0  0
  9  8  2  0  0  0  0
 10  9  1  0  0  0  0
 11 10  2  0  0  0  0
 11 12  1  0  0  0  0
 12  7  2  0  0  0  0
 13 14  1  0  0  0  0
 15  4  1  0  0  0  0
 16 15  1  0  0  0  0
 17 16  1  0  0  0  0
 18 17  2  0  0  0  0
 19 20  2  0  0  0  0
 19 18  1  0  0  0  0
 20 21  1  0  0  0  0
 21 16  2  0  0  0  0
 22 19  1  0  0  0  0
 23 22  1  0  0  0  0
 24 20  1  0  0  0  0
 25 24  1  0  0  0  0
M  END
>  <MODEL>
3

>  <REMARK>
 VINA RESULT:    -7.149      4.971      6.097
 INTER + INTRA:          -9.880
 INTER:                  -9.382
 INTRA:                  -0.497
 UNBOUND:                -0.432
  Name = CHEMBL4459363
  8 active torsions:
  status: ('A' for Active; 'I' for Inactive)
    1  A    between atoms: C_1  and  O_2
    2  A    between atoms: O_2  and  C_3
    3  A    between atoms: C_6  and  N_7
    4  A    between atoms: N_10  and  C_11
    5  A    between atoms: C_11  and  C_12
    6  A    between atoms: C_15  and  O_16
    7  A    between atoms: C_17  and  O_18
    8  A    between atoms: O_18  and  C_19
                            x       y       z     vdW  Elec       q    Type
                         _______ _______ _______ _____ _____    ______ ____

>  <TORSDO>
F 6

>  <SCORE>
-7.149

>  <RMSD_LB>
4.971

>  <RMSD_UB>
6.097

$$$$
CHEMBL4459363
 OpenBabel10162523353D

 25 26  0  0  0  0  0  0  0  0999 V2000
  139.7310  137.4670  151.9150 N   0  0  0  0  0  0  0  0  0  0  0  0
  138.9720  138.4710  151.3560 C   0  0  0  0  0  0  0  0  0  0  0  0
  139.2560  139.6670  151.3500 O   0  0  0  0  0  0  0  0  0  0  0  0
  137.7970  138.0350  150.7960 N   0  0  0  0  0  0  0  0  0  0  0  0
  139.3460  136.5650  151.9990 H   0  0  0  0  0  0  0  0  0  0  0  0
  137.2050  138.7150  150.4010 H   0  0  0  0  0  0  0  0  0  0  0  0
  143.5840  137.7880  153.4890 C   0  0  0  0  0  0  0  0  0  0  0  0
  142.4650  138.1160  154.2580 C   0  0  0  0  0  3  0  0  0  0  0  0
  141.1910  138.0760  153.6950 C   0  0  0  0  0  3  0  0  0  0  0  0
  141.0330  137.6960  152.3690 C   0  0  0  0  0  0  0  0  0  0  0  0
  142.1370  137.3460  151.5920 C   0  0  0  0  0  3  0  0  0  0  0  0
  143.4150  137.4090  152.1530 C   0  0  0  0  0  3  0  0  0  0  0  0
  145.5750  136.5530  153.8350 C   0  0  0  0  0  1  0  0  0  0  0  0
  144.8790  137.7900  153.9340 O   0  0  0  0  0  0  0  0  0  0  0  0
  137.3570  136.6620  150.7410 C   0  0  0  0  0  2  0  0  0  0  0  0
  136.2780  136.3290  151.7210 C   0  0  0  0  0  0  0  0  0  0  0  0
  136.5370  136.2760  153.0920 C   0  0  0  0  0  3  0  0  0  0  0  0
  135.5340  135.8830  153.9810 C   0  0  0  0  0  3  0  0  0  0  0  0
  134.2630  135.5500  153.5020 C   0  0  0  0  0  0  0  0  0  0  0  0
  133.9820  135.6210  152.1350 C   0  0  0  0  0  0  0  0  0  0  0  0
  134.9980  135.9960  151.2550 C   0  0  0  0  0  3  0  0  0  0  0  0
  133.3150  135.1240  154.3910 O   0  0  0  0  0  0  0  0  0  0  0  0
  133.1550  135.6130  155.1740 H   0  0  0  0  0  0  0  0  0  0  0  0
  132.8080  135.3000  151.5100 O   0  0  0  0  0  0  0  0  0  0  0  0
  132.4740  136.0960  150.3800 C   0  0  0  0  0  1  0  0  0  0  0  0
  1  5  1  0  0  0  0
  1 10  1  0  0  0  0
  2  1  1  0  0  0  0
  3  2  2  0  0  0  0
  4  2  1  0  0  0  0
  6  4  1  0  0  0  0
  7 14  1  0  0  0  0
  7  8  1  0  0  0  0
  9  8  2  0  0  0  0
 10  9  1  0  0  0  0
 11 12  1  0  0  0  0
 11 10  2  0  0  0  0
 12  7  2  0  0  0  0
 13 14  1  0  0  0  0
 15  4  1  0  0  0  0
 15 16  1  0  0  0  0
 16 17  1  0  0  0  0
 17 18  2  0  0  0  0
 19 18  1  0  0  0  0
 19 22  1  0  0  0  0
 20 19  2  0  0  0  0
 21 16  2  0  0  0  0
 21 20  1  0  0  0  0
 22 23  1  0  0  0  0
 24 20  1  0  0  0  0
 25 24  1  0  0  0  0
M  END
>  <MODEL>
4

>  <REMARK>
 VINA RESULT:    -6.866      5.707      7.099
 INTER + INTRA:          -9.507
 INTER:                  -8.990
 INTRA:                  -0.516
 UNBOUND:                -0.432
  Name = CHEMBL4459363
  8 active torsions:
  status: ('A' for Active; 'I' for Inactive)
    1  A    between atoms: C_1  and  O_2
    2  A    between atoms: O_2  and  C_3
    3  A    between atoms: C_6  and  N_7
    4  A    between atoms: N_10  and  C_11
    5  A    between atoms: C_11  and  C_12
    6  A    between atoms: C_15  and  O_16
    7  A    between atoms: C_17  and  O_18
    8  A    between atoms: O_18  and  C_19
                            x       y       z     vdW  Elec       q    Type
                         _______ _______ _______ _____ _____    ______ ____

>  <TORSDO>
F 6

>  <SCORE>
-6.866

>  <RMSD_LB>
5.707

>  <RMSD_UB>
7.099

$$$$
CHEMBL4459363
 OpenBabel10162523353D

 25 26  0  0  0  0  0  0  0  0999 V2000
  135.8240  135.2930  154.7170 N   0  0  0  0  0  0  0  0  0  0  0  0
  134.6820  135.7500  154.0990 C   0  0  0  0  0  0  0  0  0  0  0  0
  133.9810  136.6840  154.4850 O   0  0  0  0  0  0  0  0  0  0  0  0
  134.3350  135.0430  152.9740 N   0  0  0  0  0  0  0  0  0  0  0  0
  136.2280  134.4480  154.4130 H   0  0  0  0  0  0  0  0  0  0  0  0
  133.5130  135.3140  152.5050 H   0  0  0  0  0  0  0  0  0  0  0  0
  137.3400  137.7030  157.7690 C   0  0  0  0  0  0  0  0  0  0  0  0
  137.6650  137.9480  156.4330 C   0  0  0  0  0  3  0  0  0  0  0  0
  137.2120  137.0910  155.4330 C   0  0  0  0  0  3  0  0  0  0  0  0
  136.4250  135.9960  155.7650 C   0  0  0  0  0  0  0  0  0  0  0  0
  136.0730  135.7480  157.0910 C   0  0  0  0  0  3  0  0  0  0  0  0
  136.5470  136.5970  158.0940 C   0  0  0  0  0  3  0  0  0  0  0  0
  137.7380  137.8320  160.1010 C   0  0  0  0  0  1  0  0  0  0  0  0
  137.7240  138.4760  158.8320 O   0  0  0  0  0  0  0  0  0  0  0  0
  135.0760  133.9330  152.4240 C   0  0  0  0  0  2  0  0  0  0  0  0
  135.3990  134.0790  150.9720 C   0  0  0  0  0  0  0  0  0  0  0  0
  136.5180  134.8000  150.5480 C   0  0  0  0  0  3  0  0  0  0  0  0
  136.7540  134.9920  149.1860 C   0  0  0  0  0  3  0  0  0  0  0  0
  135.8740  134.4560  148.2380 C   0  0  0  0  0  0  0  0  0  0  0  0
  134.7630  133.7140  148.6460 C   0  0  0  0  0  0  0  0  0  0  0  0
  134.5280  133.5450  150.0120 C   0  0  0  0  0  3  0  0  0  0  0  0
  136.1050  134.7000  146.9130 O   0  0  0  0  0  0  0  0  0  0  0  0
  136.8370  135.2260  146.6550 H   0  0  0  0  0  0  0  0  0  0  0  0
  133.7990  133.1560  147.8530 O   0  0  0  0  0  0  0  0  0  0  0  0
  132.5030  133.7310  147.9600 C   0  0  0  0  0  1  0  0  0  0  0  0
  1 10  1  0  0  0  0
  2  3  2  0  0  0  0
  2  1  1  0  0  0  0
  4  2  1  0  0  0  0
  5  1  1  0  0  0  0
  6  4  1  0  0  0  0
  7 12  1  0  0  0  0
  7 14  1  0  0  0  0
  8  7  2  0  0  0  0
  9 10  2  0  0  0  0
  9  8  1  0  0  0  0
 10 11  1  0  0  0  0
 11 12  2  0  0  0  0
 14 13  1  0  0  0  0
 15  4  1  0  0  0  0
 16 15  1  0  0  0  0
 17 16  1  0  0  0  0
 18 17  2  0  0  0  0
 19 20  2  0  0  0  0
 19 18  1  0  0  0  0
 20 21  1  0  0  0  0
 21 16  2  0  0  0  0
 22 19  1  0  0  0  0
 23 22  1  0  0  0  0
 24 25  1  0  0  0  0
 24 20  1  0  0  0  0
M  END
>  <MODEL>
5

>  <REMARK>
 VINA RESULT:    -6.846      2.094      2.700
 INTER + INTRA:          -9.479
 INTER:                  -8.990
 INTRA:                  -0.489
 UNBOUND:                -0.432
  Name = CHEMBL4459363
  8 active torsions:
  status: ('A' for Active; 'I' for Inactive)
    1  A    between atoms: C_1  and  O_2
    2  A    between atoms: O_2  and  C_3
    3  A    between atoms: C_6  and  N_7
    4  A    between atoms: N_10  and  C_11
    5  A    between atoms: C_11  and  C_12
    6  A    between atoms: C_15  and  O_16
    7  A    between atoms: C_17  and  O_18
    8  A    between atoms: O_18  and  C_19
                            x       y       z     vdW  Elec       q    Type
                         _______ _______ _______ _____ _____    ______ ____

>  <TORSDO>
F 6

>  <SCORE>
-6.846

>  <RMSD_LB>
2.094

>  <RMSD_UB>
2.700

$$$$
CHEMBL4459363
 OpenBabel10162523353D

 25 26  0  0  0  0  0  0  0  0999 V2000
  138.1040  137.2950  151.6600 N   0  0  0  0  0  0  0  0  0  0  0  0
  137.6030  137.7410  150.4580 C   0  0  0  0  0  0  0  0  0  0  0  0
  138.0070  138.7180  149.8300 O   0  0  0  0  0  0  0  0  0  0  0  0
  136.5470  137.0020  149.9850 N   0  0  0  0  0  0  0  0  0  0  0  0
  137.6160  136.5970  152.1530 H   0  0  0  0  0  0  0  0  0  0  0  0
  136.1370  137.2900  149.1380 H   0  0  0  0  0  0  0  0  0  0  0  0
  141.6010  138.5320  153.5740 C   0  0  0  0  0  0  0  0  0  0  0  0
  140.3460  138.8650  154.0880 C   0  0  0  0  0  3  0  0  0  0  0  0
  139.1890  138.5100  153.3980 C   0  0  0  0  0  3  0  0  0  0  0  0
  139.2850  137.8110  152.2010 C   0  0  0  0  0  0  0  0  0  0  0  0
  140.5290  137.4520  151.6840 C   0  0  0  0  0  3  0  0  0  0  0  0
  141.6870  137.8290  152.3670 C   0  0  0  0  0  3  0  0  0  0  0  0
  143.8060  139.3570  153.3070 C   0  0  0  0  0  1  0  0  0  0  0  0
  142.8020  138.8250  154.1640 O   0  0  0  0  0  0  0  0  0  0  0  0
  135.9880  135.8380  150.6290 C   0  0  0  0  0  2  0  0  0  0  0  0
  134.8660  135.2040  149.8700 C   0  0  0  0  0  0  0  0  0  0  0  0
  134.6470  133.8250  149.9230 C   0  0  0  0  0  3  0  0  0  0  0  0
  133.6460  133.2450  149.1420 C   0  0  0  0  0  3  0  0  0  0  0  0
  132.8530  134.0430  148.3090 C   0  0  0  0  0  0  0  0  0  0  0  0
  133.0460  135.4260  148.2640 C   0  0  0  0  0  0  0  0  0  0  0  0
  134.0630  135.9920  149.0350 C   0  0  0  0  0  3  0  0  0  0  0  0
  131.9120  133.4410  147.5210 O   0  0  0  0  0  0  0  0  0  0  0  0
  131.5520  132.6120  147.7720 H   0  0  0  0  0  0  0  0  0  0  0  0
  132.3820  136.3330  147.4840 O   0  0  0  0  0  0  0  0  0  0  0  0
  133.1840  137.3570  146.9110 C   0  0  0  0  0  1  0  0  0  0  0  0
  1  5  1  0  0  0  0
  1 10  1  0  0  0  0
  2  1  1  0  0  0  0
  3  2  2  0  0  0  0
  4  2  1  0  0  0  0
  4 15  1  0  0  0  0
  6  4  1  0  0  0  0
  7  8  1  0  0  0  0
  7 14  1  0  0  0  0
  9  8  2  0  0  0  0
 10  9  1  0  0  0  0
 11 10  2  0  0  0  0
 11 12  1  0  0  0  0
 12  7  2  0  0  0  0
 13 14  1  0  0  0  0
 16 17  1  0  0  0  0
 16 15  1  0  0  0  0
 18 17  2  0  0  0  0
 19 18  1  0  0  0  0
 20 19  2  0  0  0  0
 20 21  1  0  0  0  0
 21 16  2  0  0  0  0
 22 23  1  0  0  0  0
 22 19  1  0  0  0  0
 24 20  1  0  0  0  0
 25 24  1  0  0  0  0
M  END
>  <MODEL>
6

>  <REMARK>
 VINA RESULT:    -6.706      4.646      5.457
 INTER + INTRA:          -9.295
 INTER:                  -8.890
 INTRA:                  -0.404
 UNBOUND:                -0.432
  Name = CHEMBL4459363
  8 active torsions:
  status: ('A' for Active; 'I' for Inactive)
    1  A    between atoms: C_1  and  O_2
    2  A    between atoms: O_2  and  C_3
    3  A    between atoms: C_6  and  N_7
    4  A    between atoms: N_10  and  C_11
    5  A    between atoms: C_11  and  C_12
    6  A    between atoms: C_15  and  O_16
    7  A    between atoms: C_17  and  O_18
    8  A    between atoms: O_18  and  C_19
                            x       y       z     vdW  Elec       q    Type
                         _______ _______ _______ _____ _____    ______ ____

>  <TORSDO>
F 6

>  <SCORE>
-6.706

>  <RMSD_LB>
4.646

>  <RMSD_UB>
5.457

$$$$
CHEMBL4459363
 OpenBabel10162523353D

 25 26  0  0  0  0  0  0  0  0999 V2000
  140.3240  138.0070  152.8750 N   0  0  0  0  0  0  0  0  0  0  0  0
  139.3830  138.5960  153.6890 C   0  0  0  0  0  0  0  0  0  0  0  0
  139.6170  139.3860  154.6010 O   0  0  0  0  0  0  0  0  0  0  0  0
  138.0930  138.2060  153.4240 N   0  0  0  0  0  0  0  0  0  0  0  0
  140.0490  137.2760  152.2740 H   0  0  0  0  0  0  0  0  0  0  0  0
  137.3820  138.5810  153.9910 H   0  0  0  0  0  0  0  0  0  0  0  0
  144.4050  138.8630  152.6910 C   0  0  0  0  0  0  0  0  0  0  0  0
  143.9000  137.9750  153.6450 C   0  0  0  0  0  3  0  0  0  0  0  0
  142.5280  137.7580  153.7410 C   0  0  0  0  0  3  0  0  0  0  0  0
  141.6600  138.4160  152.8790 C   0  0  0  0  0  0  0  0  0  0  0  0
  142.1480  139.2900  151.9090 C   0  0  0  0  0  3  0  0  0  0  0  0
  143.5230  139.5230  151.8290 C   0  0  0  0  0  3  0  0  0  0  0  0
  146.1920  139.1190  151.1570 C   0  0  0  0  0  1  0  0  0  0  0  0
  145.7300  139.1530  152.5030 O   0  0  0  0  0  0  0  0  0  0  0  0
  137.6960  137.2900  152.3820 C   0  0  0  0  0  2  0  0  0  0  0  0
  136.6680  136.2920  152.8100 C   0  0  0  0  0  0  0  0  0  0  0  0
  136.3420  136.1230  154.1580 C   0  0  0  0  0  3  0  0  0  0  0  0
  135.4400  135.1290  154.5410 C   0  0  0  0  0  3  0  0  0  0  0  0
  134.8520  134.3040  153.5760 C   0  0  0  0  0  0  0  0  0  0  0  0
  135.1500  134.4770  152.2230 C   0  0  0  0  0  0  0  0  0  0  0  0
  136.0690  135.4620  151.8530 C   0  0  0  0  0  3  0  0  0  0  0  0
  134.0090  133.3090  153.9860 O   0  0  0  0  0  0  0  0  0  0  0  0
  133.8630  132.5630  153.4370 H   0  0  0  0  0  0  0  0  0  0  0  0
  134.6880  133.7380  151.1680 O   0  0  0  0  0  0  0  0  0  0  0  0
  134.0160  134.4690  150.1510 C   0  0  0  0  0  1  0  0  0  0  0  0
  1 10  1  0  0  0  0
  1  2  1  0  0  0  0
  2  3  2  0  0  0  0
  4  2  1  0  0  0  0
  4  6  1  0  0  0  0
  5  1  1  0  0  0  0
  7  8  1  0  0  0  0
  8  9  2  0  0  0  0
 10  9  1  0  0  0  0
 11 10  2  0  0  0  0
 12 11  1  0  0  0  0
 12  7  2  0  0  0  0
 13 14  1  0  0  0  0
 14  7  1  0  0  0  0
 15 16  1  0  0  0  0
 15  4  1  0  0  0  0
 16 17  1  0  0  0  0
 17 18  2  0  0  0  0
 19 22  1  0  0  0  0
 19 18  1  0  0  0  0
 20 19  2  0  0  0  0
 21 20  1  0  0  0  0
 21 16  2  0  0  0  0
 23 22  1  0  0  0  0
 24 20  1  0  0  0  0
 25 24  1  0  0  0  0
M  END
>  <MODEL>
7

>  <REMARK>
 VINA RESULT:    -6.622      6.128      7.793
 INTER + INTRA:          -9.184
 INTER:                  -8.721
 INTRA:                  -0.463
 UNBOUND:                -0.432
  Name = CHEMBL4459363
  8 active torsions:
  status: ('A' for Active; 'I' for Inactive)
    1  A    between atoms: C_1  and  O_2
    2  A    between atoms: O_2  and  C_3
    3  A    between atoms: C_6  and  N_7
    4  A    between atoms: N_10  and  C_11
    5  A    between atoms: C_11  and  C_12
    6  A    between atoms: C_15  and  O_16
    7  A    between atoms: C_17  and  O_18
    8  A    between atoms: O_18  and  C_19
                            x       y       z     vdW  Elec       q    Type
                         _______ _______ _______ _____ _____    ______ ____

>  <TORSDO>
F 6

>  <SCORE>
-6.622

>  <RMSD_LB>
6.128

>  <RMSD_UB>
7.793

$$$$
CHEMBL4459363
 OpenBabel10162523353D

 25 26  0  0  0  0  0  0  0  0999 V2000
  146.6040  139.6630  149.2380 N   0  0  0  0  0  0  0  0  0  0  0  0
  145.3770  140.2860  149.2790 C   0  0  0  0  0  0  0  0  0  0  0  0
  144.2920  139.7470  149.0720 O   0  0  0  0  0  0  0  0  0  0  0  0
  145.4420  141.6290  149.5560 N   0  0  0  0  0  0  0  0  0  0  0  0
  147.4220  140.2110  149.2710 H   0  0  0  0  0  0  0  0  0  0  0  0
  144.5940  142.1280  149.5760 H   0  0  0  0  0  0  0  0  0  0  0  0
  147.3730  135.5700  148.9530 C   0  0  0  0  0  0  0  0  0  0  0  0
  147.4260  136.3910  147.8240 C   0  0  0  0  0  3  0  0  0  0  0  0
  147.0940  137.7400  147.9220 C   0  0  0  0  0  3  0  0  0  0  0  0
  146.7210  138.2730  149.1490 C   0  0  0  0  0  0  0  0  0  0  0  0
  146.6830  137.4740  150.2900 C   0  0  0  0  0  3  0  0  0  0  0  0
  146.9950  136.1160  150.1840 C   0  0  0  0  0  3  0  0  0  0  0  0
  148.9630  133.8800  148.4770 C   0  0  0  0  0  1  0  0  0  0  0  0
  147.6790  134.2360  148.9780 O   0  0  0  0  0  0  0  0  0  0  0  0
  146.6530  142.3700  149.8180 C   0  0  0  0  0  2  0  0  0  0  0  0
  147.2240  142.1370  151.1800 C   0  0  0  0  0  0  0  0  0  0  0  0
  148.6030  142.1710  151.4010 C   0  0  0  0  0  3  0  0  0  0  0  0
  149.1190  141.8700  152.6630 C   0  0  0  0  0  3  0  0  0  0  0  0
  148.2550  141.5420  153.7140 C   0  0  0  0  0  0  0  0  0  0  0  0
  146.8730  141.5260  153.5130 C   0  0  0  0  0  0  0  0  0  0  0  0
  146.3710  141.8100  152.2420 C   0  0  0  0  0  3  0  0  0  0  0  0
  148.7910  141.2060  154.9260 O   0  0  0  0  0  0  0  0  0  0  0  0
  148.6160  141.7360  155.6780 H   0  0  0  0  0  0  0  0  0  0  0  0
  145.9040  141.1970  154.4220 O   0  0  0  0  0  0  0  0  0  0  0  0
  145.5080  139.8310  154.4330 C   0  0  0  0  0  1  0  0  0  0  0  0
  1  5  1  0  0  0  0
  1  2  1  0  0  0  0
  2  4  1  0  0  0  0
  3  2  2  0  0  0  0
  4  6  1  0  0  0  0
  4 15  1  0  0  0  0
  7 14  1  0  0  0  0
  7 12  1  0  0  0  0
  8  9  1  0  0  0  0
  8  7  2  0  0  0  0
  9 10  2  0  0  0  0
 10  1  1  0  0  0  0
 10 11  1  0  0  0  0
 12 11  2  0  0  0  0
 13 14  1  0  0  0  0
 15 16  1  0  0  0  0
 16 17  2  0  0  0  0
 16 21  1  0  0  0  0
 17 18  1  0  0  0  0
 18 19  2  0  0  0  0
 19 22  1  0  0  0  0
 20 19  1  0  0  0  0
 20 24  1  0  0  0  0
 21 20  2  0  0  0  0
 22 23  1  0  0  0  0
 24 25  1  0  0  0  0
M  END
>  <MODEL>
8

>  <REMARK>
 VINA RESULT:    -6.573     12.988     15.428
 INTER + INTRA:          -9.119
 INTER:                  -8.686
 INTRA:                  -0.432
 UNBOUND:                -0.432
  Name = CHEMBL4459363
  8 active torsions:
  status: ('A' for Active; 'I' for Inactive)
    1  A    between atoms: C_1  and  O_2
    2  A    between atoms: O_2  and  C_3
    3  A    between atoms: C_6  and  N_7
    4  A    between atoms: N_10  and  C_11
    5  A    between atoms: C_11  and  C_12
    6  A    between atoms: C_15  and  O_16
    7  A    between atoms: C_17  and  O_18
    8  A    between atoms: O_18  and  C_19
                            x       y       z     vdW  Elec       q    Type
                         _______ _______ _______ _____ _____    ______ ____

>  <TORSDO>
F 6

>  <SCORE>
-6.573

>  <RMSD_LB>
12.988

>  <RMSD_UB>
15.428

$$$$
CHEMBL4459363
 OpenBabel10162523353D

 25 26  0  0  0  0  0  0  0  0999 V2000
  140.3450  138.0300  152.8490 N   0  0  0  0  0  0  0  0  0  0  0  0
  139.4210  138.6100  153.6880 C   0  0  0  0  0  0  0  0  0  0  0  0
  139.6760  139.3630  154.6260 O   0  0  0  0  0  0  0  0  0  0  0  0
  138.1220  138.2580  153.4170 N   0  0  0  0  0  0  0  0  0  0  0  0
  140.0510  137.3270  152.2250 H   0  0  0  0  0  0  0  0  0  0  0  0
  137.4210  138.6290  154.0010 H   0  0  0  0  0  0  0  0  0  0  0  0
  144.4460  138.7920  152.6950 C   0  0  0  0  0  0  0  0  0  0  0  0
  143.9100  137.9370  153.6620 C   0  0  0  0  0  3  0  0  0  0  0  0
  142.5330  137.7520  153.7470 C   0  0  0  0  0  3  0  0  0  0  0  0
  141.6900  138.4090  152.8610 C   0  0  0  0  0  0  0  0  0  0  0  0
  142.2080  139.2500  151.8760 C   0  0  0  0  0  3  0  0  0  0  0  0
  143.5890  139.4510  151.8080 C   0  0  0  0  0  3  0  0  0  0  0  0
  146.2580  138.9630  151.1790 C   0  0  0  0  0  1  0  0  0  0  0  0
  145.7790  139.0480  152.5160 O   0  0  0  0  0  0  0  0  0  0  0  0
  137.6990  137.3880  152.3460 C   0  0  0  0  0  2  0  0  0  0  0  0
  136.7720  136.2980  152.7790 C   0  0  0  0  0  0  0  0  0  0  0  0
  136.3210  135.3320  151.8770 C   0  0  0  0  0  3  0  0  0  0  0  0
  135.3920  134.3720  152.2850 C   0  0  0  0  0  3  0  0  0  0  0  0
  134.9160  134.3690  153.6010 C   0  0  0  0  0  0  0  0  0  0  0  0
  135.3770  135.3140  154.5200 C   0  0  0  0  0  0  0  0  0  0  0  0
  136.2910  136.2810  154.0960 C   0  0  0  0  0  3  0  0  0  0  0  0
  133.9730  133.4470  153.9570 O   0  0  0  0  0  0  0  0  0  0  0  0
  133.4120  133.6110  154.6900 H   0  0  0  0  0  0  0  0  0  0  0  0
  134.9890  135.4640  155.8230 O   0  0  0  0  0  0  0  0  0  0  0  0
  136.0430  135.6000  156.7680 C   0  0  0  0  0  1  0  0  0  0  0  0
  1 10  1  0  0  0  0
  1  2  1  0  0  0  0
  2  3  2  0  0  0  0
  4  2  1  0  0  0  0
  4  6  1  0  0  0  0
  5  1  1  0  0  0  0
  7  8  1  0  0  0  0
  8  9  2  0  0  0  0
 10  9  1  0  0  0  0
 11 10  2  0  0  0  0
 12 11  1  0  0  0  0
 12  7  2  0  0  0  0
 13 14  1  0  0  0  0
 14  7  1  0  0  0  0
 15 16  1  0  0  0  0
 15  4  1  0  0  0  0
 16 21  1  0  0  0  0
 17 18  1  0  0  0  0
 17 16  2  0  0  0  0
 18 19  2  0  0  0  0
 19 22  1  0  0  0  0
 19 20  1  0  0  0  0
 20 24  1  0  0  0  0
 21 20  2  0  0  0  0
 22 23  1  0  0  0  0
 24 25  1  0  0  0  0
M  END
>  <MODEL>
9

>  <REMARK>
 VINA RESULT:    -6.543      6.141      8.206
 INTER + INTRA:          -9.079
 INTER:                  -8.612
 INTRA:                  -0.466
 UNBOUND:                -0.432
  Name = CHEMBL4459363
  8 active torsions:
  status: ('A' for Active; 'I' for Inactive)
    1  A    between atoms: C_1  and  O_2
    2  A    between atoms: O_2  and  C_3
    3  A    between atoms: C_6  and  N_7
    4  A    between atoms: N_10  and  C_11
    5  A    between atoms: C_11  and  C_12
    6  A    between atoms: C_15  and  O_16
    7  A    between atoms: C_17  and  O_18
    8  A    between atoms: O_18  and  C_19
                            x       y       z     vdW  Elec       q    Type
                         _______ _______ _______ _____ _____    ______ ____

>  <TORSDO>
F 6

>  <SCORE>
-6.543

>  <RMSD_LB>
6.141

>  <RMSD_UB>
8.206

$$$$
