CHEMBL77195
 OpenBabel10172500343D

 23 24  0  0  0  0  0  0  0  0999 V2000
  134.5680  134.7400  152.4120 N   0  0  0  0  0  0  0  0  0  0  0  0
  134.7910  134.6800  153.7610 C   0  0  0  0  0  0  0  0  0  0  0  0
  133.9760  134.2630  154.5830 O   0  0  0  0  0  0  0  0  0  0  0  0
  135.2700  135.1080  151.8280 H   0  0  0  0  0  0  0  0  0  0  0  0
  136.1260  135.1950  154.1510 C   0  0  0  0  0  3  0  0  0  0  0  0
  136.2480  136.3650  154.7850 C   0  0  0  0  0  3  0  0  0  0  0  0
  137.5350  136.9740  155.1630 C   0  0  0  0  0  0  0  0  0  0  0  0
  138.1240  136.7460  156.4160 C   0  0  0  0  0  3  0  0  0  0  0  0
  139.3820  137.2790  156.7190 C   0  0  0  0  0  3  0  0  0  0  0  0
  140.0660  138.0330  155.7730 C   0  0  0  0  0  3  0  0  0  0  0  0
  139.4960  138.2640  154.5230 C   0  0  0  0  0  3  0  0  0  0  0  0
  138.2360  137.7350  154.2220 C   0  0  0  0  0  3  0  0  0  0  0  0
  133.3320  134.2780  151.8140 C   0  0  0  0  0  2  0  0  0  0  0  0
  133.0250  134.7400  147.9980 C   0  0  0  0  0  0  0  0  0  0  0  0
  132.9730  134.9900  149.3800 C   0  0  0  0  0  3  0  0  0  0  0  0
  133.4070  134.0360  150.3190 C   0  0  0  0  0  0  0  0  0  0  0  0
  133.8810  132.8090  149.8370 C   0  0  0  0  0  3  0  0  0  0  0  0
  133.9410  132.5420  148.4650 C   0  0  0  0  0  3  0  0  0  0  0  0
  133.5160  133.5060  147.5540 C   0  0  0  0  0  0  0  0  0  0  0  0
  132.5810  137.0050  147.4070 C   0  0  0  0  0  1  0  0  0  0  0  0
  132.6320  135.6340  147.0330 O   0  0  0  0  0  0  0  0  0  0  0  0
  133.5710  133.2530  146.2090 O   0  0  0  0  0  0  0  0  0  0  0  0
  132.8980  132.7470  145.8000 H   0  0  0  0  0  0  0  0  0  0  0  0
  1  2  1  0  0  0  0
  2  5  1  0  0  0  0
  2  3  2  0  0  0  0
  4  1  1  0  0  0  0
  5  6  2  0  0  0  0
  6  7  1  0  0  0  0
  7  8  1  0  0  0  0
  8  9  2  0  0  0  0
 10  9  1  0  0  0  0
 11 10  2  0  0  0  0
 12 11  1  0  0  0  0
 12  7  2  0  0  0  0
 13  1  1  0  0  0  0
 14 15  1  0  0  0  0
 15 16  2  0  0  0  0
 16 13  1  0  0  0  0
 17 16  1  0  0  0  0
 18 17  2  0  0  0  0
 19 14  2  0  0  0  0
 19 18  1  0  0  0  0
 21 20  1  0  0  0  0
 21 14  1  0  0  0  0
 22 19  1  0  0  0  0
 23 22  1  0  0  0  0
M  END
>  <MODEL>
1

>  <REMARK>
 VINA RESULT:    -7.353      0.000      0.000
 INTER + INTRA:         -10.203
 INTER:                  -9.812
 INTRA:                  -0.391
 UNBOUND:                -0.486
  Name = CHEMBL77195
  7 active torsions:
  status: ('A' for Active; 'I' for Inactive)
    1  A    between atoms: C_1  and  O_2
    2  A    between atoms: O_2  and  C_3
    3  A    between atoms: C_5  and  C_6
    4  A    between atoms: C_6  and  N_7
    5  A    between atoms: C_8  and  C_10
    6  A    between atoms: C_11  and  C_12
    7  A    between atoms: C_20  and  O_21
                            x       y       z     vdW  Elec       q    Type
                         _______ _______ _______ _____ _____    ______ ____

>  <TORSDO>
F 6

>  <SCORE>
-7.353

>  <RMSD_LB>
0.000

>  <RMSD_UB>
0.000

$$$$
CHEMBL77195
 OpenBabel10172500343D

 23 24  0  0  0  0  0  0  0  0999 V2000
  138.9170  137.4120  154.8400 N   0  0  0  0  0  0  0  0  0  0  0  0
  139.6050  138.5100  154.4000 C   0  0  0  0  0  0  0  0  0  0  0  0
  139.2100  139.6700  154.5130 O   0  0  0  0  0  0  0  0  0  0  0  0
  139.3010  136.5180  154.6890 H   0  0  0  0  0  0  0  0  0  0  0  0
  140.8890  138.1650  153.7410 C   0  0  0  0  0  3  0  0  0  0  0  0
  140.9180  137.7830  152.4600 C   0  0  0  0  0  3  0  0  0  0  0  0
  142.1380  137.3750  151.7440 C   0  0  0  0  0  0  0  0  0  0  0  0
  143.4080  137.4490  152.3380 C   0  0  0  0  0  3  0  0  0  0  0  0
  144.5390  136.9860  151.6590 C   0  0  0  0  0  3  0  0  0  0  0  0
  144.4140  136.4340  150.3890 C   0  0  0  0  0  3  0  0  0  0  0  0
  143.1600  136.3490  149.7880 C   0  0  0  0  0  3  0  0  0  0  0  0
  142.0280  136.8170  150.4650 C   0  0  0  0  0  3  0  0  0  0  0  0
  137.6440  137.5230  155.5220 C   0  0  0  0  0  2  0  0  0  0  0  0
  134.7770  134.9440  155.5640 C   0  0  0  0  0  0  0  0  0  0  0  0
  135.7190  135.8990  155.9860 C   0  0  0  0  0  3  0  0  0  0  0  0
  136.6030  136.5120  155.0800 C   0  0  0  0  0  0  0  0  0  0  0  0
  136.5350  136.1290  153.7330 C   0  0  0  0  0  3  0  0  0  0  0  0
  135.6050  135.1810  153.2950 C   0  0  0  0  0  3  0  0  0  0  0  0
  134.7310  134.5950  154.2080 C   0  0  0  0  0  0  0  0  0  0  0  0
  133.9770  134.6110  157.7830 C   0  0  0  0  0  1  0  0  0  0  0  0
  133.8780  134.3220  156.3940 O   0  0  0  0  0  0  0  0  0  0  0  0
  133.8180  133.6670  153.7870 O   0  0  0  0  0  0  0  0  0  0  0  0
  133.5730  133.6260  152.8840 H   0  0  0  0  0  0  0  0  0  0  0  0
  1 13  1  0  0  0  0
  2  3  2  0  0  0  0
  2  1  1  0  0  0  0
  4  1  1  0  0  0  0
  5  2  1  0  0  0  0
  6  5  2  0  0  0  0
  7  8  1  0  0  0  0
  7  6  1  0  0  0  0
  9  8  2  0  0  0  0
 10  9  1  0  0  0  0
 11 10  2  0  0  0  0
 11 12  1  0  0  0  0
 12  7  2  0  0  0  0
 14 15  1  0  0  0  0
 14 21  1  0  0  0  0
 16 13  1  0  0  0  0
 16 15  2  0  0  0  0
 17 16  1  0  0  0  0
 18 17  2  0  0  0  0
 18 19  1  0  0  0  0
 19 14  2  0  0  0  0
 21 20  1  0  0  0  0
 22 19  1  0  0  0  0
 23 22  1  0  0  0  0
M  END
>  <MODEL>
2

>  <REMARK>
 VINA RESULT:    -7.346      4.225      6.931
 INTER + INTRA:         -10.195
 INTER:                  -9.706
 INTRA:                  -0.489
 UNBOUND:                -0.486
  Name = CHEMBL77195
  7 active torsions:
  status: ('A' for Active; 'I' for Inactive)
    1  A    between atoms: C_1  and  O_2
    2  A    between atoms: O_2  and  C_3
    3  A    between atoms: C_5  and  C_6
    4  A    between atoms: C_6  and  N_7
    5  A    between atoms: C_8  and  C_10
    6  A    between atoms: C_11  and  C_12
    7  A    between atoms: C_20  and  O_21
                            x       y       z     vdW  Elec       q    Type
                         _______ _______ _______ _____ _____    ______ ____

>  <TORSDO>
F 6

>  <SCORE>
-7.346

>  <RMSD_LB>
4.225

>  <RMSD_UB>
6.931

$$$$
CHEMBL77195
 OpenBabel10172500343D

 23 24  0  0  0  0  0  0  0  0999 V2000
  133.1980  133.6740  151.6540 N   0  0  0  0  0  0  0  0  0  0  0  0
  133.6290  134.8470  152.2140 C   0  0  0  0  0  0  0  0  0  0  0  0
  133.4410  135.9600  151.7270 O   0  0  0  0  0  0  0  0  0  0  0  0
  133.4110  132.8250  152.1040 H   0  0  0  0  0  0  0  0  0  0  0  0
  134.3770  134.6450  153.4790 C   0  0  0  0  0  3  0  0  0  0  0  0
  134.8040  135.6900  154.1950 C   0  0  0  0  0  3  0  0  0  0  0  0
  135.5950  135.5810  155.4320 C   0  0  0  0  0  0  0  0  0  0  0  0
  136.9440  135.9660  155.4870 C   0  0  0  0  0  3  0  0  0  0  0  0
  137.6480  135.9200  156.6940 C   0  0  0  0  0  3  0  0  0  0  0  0
  137.0130  135.5010  157.8570 C   0  0  0  0  0  3  0  0  0  0  0  0
  135.6730  135.1200  157.8190 C   0  0  0  0  0  3  0  0  0  0  0  0
  134.9690  135.1620  156.6110 C   0  0  0  0  0  3  0  0  0  0  0  0
  132.4380  133.6430  150.4220 C   0  0  0  0  0  2  0  0  0  0  0  0
  134.0600  134.7710  147.1100 C   0  0  0  0  0  0  0  0  0  0  0  0
  133.2920  134.7720  148.2870 C   0  0  0  0  0  3  0  0  0  0  0  0
  133.2820  133.6700  149.1610 C   0  0  0  0  0  0  0  0  0  0  0  0
  134.0490  132.5490  148.8160 C   0  0  0  0  0  3  0  0  0  0  0  0
  134.8190  132.5300  147.6480 C   0  0  0  0  0  3  0  0  0  0  0  0
  134.8230  133.6370  146.8030 C   0  0  0  0  0  0  0  0  0  0  0  0
  133.1050  136.8050  146.3190 C   0  0  0  0  0  1  0  0  0  0  0  0
  134.1250  135.8190  146.2250 O   0  0  0  0  0  0  0  0  0  0  0  0
  135.5740  133.6260  145.6590 O   0  0  0  0  0  0  0  0  0  0  0  0
  135.4060  132.9880  144.9940 H   0  0  0  0  0  0  0  0  0  0  0  0
  1  4  1  0  0  0  0
  1  2  1  0  0  0  0
  2  5  1  0  0  0  0
  3  2  2  0  0  0  0
  5  6  2  0  0  0  0
  6  7  1  0  0  0  0
  7  8  2  0  0  0  0
  7 12  1  0  0  0  0
  8  9  1  0  0  0  0
  9 10  2  0  0  0  0
 11 10  1  0  0  0  0
 12 11  2  0  0  0  0
 13  1  1  0  0  0  0
 14 15  1  0  0  0  0
 15 16  2  0  0  0  0
 16 13  1  0  0  0  0
 17 16  1  0  0  0  0
 18 17  2  0  0  0  0
 19 14  2  0  0  0  0
 19 18  1  0  0  0  0
 21 20  1  0  0  0  0
 21 14  1  0  0  0  0
 22 19  1  0  0  0  0
 23 22  1  0  0  0  0
M  END
>  <MODEL>
3

>  <REMARK>
 VINA RESULT:    -7.214      1.843      2.572
 INTER + INTRA:         -10.020
 INTER:                  -9.528
 INTRA:                  -0.492
 UNBOUND:                -0.486
  Name = CHEMBL77195
  7 active torsions:
  status: ('A' for Active; 'I' for Inactive)
    1  A    between atoms: C_1  and  O_2
    2  A    between atoms: O_2  and  C_3
    3  A    between atoms: C_5  and  C_6
    4  A    between atoms: C_6  and  N_7
    5  A    between atoms: C_8  and  C_10
    6  A    between atoms: C_11  and  C_12
    7  A    between atoms: C_20  and  O_21
                            x       y       z     vdW  Elec       q    Type
                         _______ _______ _______ _____ _____    ______ ____

>  <TORSDO>
F 6

>  <SCORE>
-7.214

>  <RMSD_LB>
1.843

>  <RMSD_UB>
2.572

$$$$
CHEMBL77195
 OpenBabel10172500343D

 23 24  0  0  0  0  0  0  0  0999 V2000
  134.7940  134.0440  152.0220 N   0  0  0  0  0  0  0  0  0  0  0  0
  134.6820  134.5800  153.2770 C   0  0  0  0  0  0  0  0  0  0  0  0
  133.6290  134.6590  153.9070 O   0  0  0  0  0  0  0  0  0  0  0  0
  135.6760  134.0400  151.5830 H   0  0  0  0  0  0  0  0  0  0  0  0
  135.9710  135.0860  153.8090 C   0  0  0  0  0  3  0  0  0  0  0  0
  136.0110  136.1830  154.5710 C   0  0  0  0  0  3  0  0  0  0  0  0
  137.2490  136.7830  155.0980 C   0  0  0  0  0  0  0  0  0  0  0  0
  137.8030  136.3840  156.3240 C   0  0  0  0  0  3  0  0  0  0  0  0
  139.0180  136.9190  156.7630 C   0  0  0  0  0  3  0  0  0  0  0  0
  139.6960  137.8460  155.9810 C   0  0  0  0  0  3  0  0  0  0  0  0
  139.1600  138.2490  154.7590 C   0  0  0  0  0  3  0  0  0  0  0  0
  137.9420  137.7170  154.3210 C   0  0  0  0  0  3  0  0  0  0  0  0
  133.6590  133.4820  151.3200 C   0  0  0  0  0  2  0  0  0  0  0  0
  135.0240  133.8760  147.7350 C   0  0  0  0  0  0  0  0  0  0  0  0
  134.9650  133.7650  149.1350 C   0  0  0  0  0  3  0  0  0  0  0  0
  133.7440  133.5750  149.8090 C   0  0  0  0  0  0  0  0  0  0  0  0
  132.5730  133.5190  149.0420 C   0  0  0  0  0  3  0  0  0  0  0  0
  132.6120  133.6280  147.6480 C   0  0  0  0  0  3  0  0  0  0  0  0
  133.8330  133.8040  147.0020 C   0  0  0  0  0  0  0  0  0  0  0  0
  136.9780  132.8880  146.7960 C   0  0  0  0  0  1  0  0  0  0  0  0
  136.1830  134.0460  147.0190 O   0  0  0  0  0  0  0  0  0  0  0  0
  133.8800  133.9110  145.6380 O   0  0  0  0  0  0  0  0  0  0  0  0
  133.4000  134.5890  145.2040 H   0  0  0  0  0  0  0  0  0  0  0  0
  1  2  1  0  0  0  0
  2  5  1  0  0  0  0
  2  3  2  0  0  0  0
  4  1  1  0  0  0  0
  5  6  2  0  0  0  0
  6  7  1  0  0  0  0
  7  8  1  0  0  0  0
  8  9  2  0  0  0  0
 10  9  1  0  0  0  0
 11 10  2  0  0  0  0
 12 11  1  0  0  0  0
 12  7  2  0  0  0  0
 13  1  1  0  0  0  0
 14 15  1  0  0  0  0
 15 16  2  0  0  0  0
 16 13  1  0  0  0  0
 17 16  1  0  0  0  0
 18 17  2  0  0  0  0
 19 18  1  0  0  0  0
 19 14  2  0  0  0  0
 20 21  1  0  0  0  0
 21 14  1  0  0  0  0
 22 19  1  0  0  0  0
 23 22  1  0  0  0  0
M  END
>  <MODEL>
4

>  <REMARK>
 VINA RESULT:    -7.083      1.282      1.885
 INTER + INTRA:          -9.847
 INTER:                  -9.443
 INTRA:                  -0.404
 UNBOUND:                -0.486
  Name = CHEMBL77195
  7 active torsions:
  status: ('A' for Active; 'I' for Inactive)
    1  A    between atoms: C_1  and  O_2
    2  A    between atoms: O_2  and  C_3
    3  A    between atoms: C_5  and  C_6
    4  A    between atoms: C_6  and  N_7
    5  A    between atoms: C_8  and  C_10
    6  A    between atoms: C_11  and  C_12
    7  A    between atoms: C_20  and  O_21
                            x       y       z     vdW  Elec       q    Type
                         _______ _______ _______ _____ _____    ______ ____

>  <TORSDO>
F 6

>  <SCORE>
-7.083

>  <RMSD_LB>
1.282

>  <RMSD_UB>
1.885

$$$$
CHEMBL77195
 OpenBabel10172500343D

 23 24  0  0  0  0  0  0  0  0999 V2000
  134.2350  133.7540  148.3580 N   0  0  0  0  0  0  0  0  0  0  0  0
  134.5970  132.6060  147.7060 C   0  0  0  0  0  0  0  0  0  0  0  0
  134.5240  131.4790  148.1920 O   0  0  0  0  0  0  0  0  0  0  0  0
  134.3460  134.6180  147.8990 H   0  0  0  0  0  0  0  0  0  0  0  0
  135.1140  132.8550  146.3380 C   0  0  0  0  0  3  0  0  0  0  0  0
  136.3380  132.4470  145.9870 C   0  0  0  0  0  3  0  0  0  0  0  0
  136.9490  132.6960  144.6700 C   0  0  0  0  0  0  0  0  0  0  0  0
  136.9570  131.7220  143.6590 C   0  0  0  0  0  3  0  0  0  0  0  0
  137.4790  132.0130  142.3950 C   0  0  0  0  0  3  0  0  0  0  0  0
  137.9870  133.2780  142.1240 C   0  0  0  0  0  3  0  0  0  0  0  0
  137.9820  134.2570  143.1160 C   0  0  0  0  0  3  0  0  0  0  0  0
  137.4630  133.9640  144.3820 C   0  0  0  0  0  3  0  0  0  0  0  0
  133.6940  133.7390  149.7020 C   0  0  0  0  0  2  0  0  0  0  0  0
  134.6410  135.8660  152.7760 C   0  0  0  0  0  0  0  0  0  0  0  0
  133.8990  135.0950  151.8650 C   0  0  0  0  0  3  0  0  0  0  0  0
  134.4870  134.5500  150.7090 C   0  0  0  0  0  0  0  0  0  0  0  0
  135.8430  134.8150  150.4740 C   0  0  0  0  0  3  0  0  0  0  0  0
  136.5980  135.5810  151.3680 C   0  0  0  0  0  3  0  0  0  0  0  0
  135.9970  136.1000  152.5130 C   0  0  0  0  0  0  0  0  0  0  0  0
  133.7060  135.5020  154.9360 C   0  0  0  0  0  1  0  0  0  0  0  0
  134.1310  136.4110  153.9280 O   0  0  0  0  0  0  0  0  0  0  0  0
  136.7300  136.8510  153.3930 O   0  0  0  0  0  0  0  0  0  0  0  0
  136.3210  137.2090  154.1560 H   0  0  0  0  0  0  0  0  0  0  0  0
  1 13  1  0  0  0  0
  2  3  2  0  0  0  0
  2  1  1  0  0  0  0
  4  1  1  0  0  0  0
  5  2  1  0  0  0  0
  6  5  2  0  0  0  0
  7  6  1  0  0  0  0
  8  7  2  0  0  0  0
  9  8  1  0  0  0  0
 10  9  2  0  0  0  0
 10 11  1  0  0  0  0
 11 12  2  0  0  0  0
 12  7  1  0  0  0  0
 13 16  1  0  0  0  0
 14 21  1  0  0  0  0
 15 14  2  0  0  0  0
 16 15  1  0  0  0  0
 17 16  2  0  0  0  0
 17 18  1  0  0  0  0
 18 19  2  0  0  0  0
 19 14  1  0  0  0  0
 19 22  1  0  0  0  0
 21 20  1  0  0  0  0
 22 23  1  0  0  0  0
M  END
>  <MODEL>
5

>  <REMARK>
 VINA RESULT:    -6.985      3.788      8.706
 INTER + INTRA:          -9.717
 INTER:                  -9.211
 INTRA:                  -0.506
 UNBOUND:                -0.486
  Name = CHEMBL77195
  7 active torsions:
  status: ('A' for Active; 'I' for Inactive)
    1  A    between atoms: C_1  and  O_2
    2  A    between atoms: O_2  and  C_3
    3  A    between atoms: C_5  and  C_6
    4  A    between atoms: C_6  and  N_7
    5  A    between atoms: C_8  and  C_10
    6  A    between atoms: C_11  and  C_12
    7  A    between atoms: C_20  and  O_21
                            x       y       z     vdW  Elec       q    Type
                         _______ _______ _______ _____ _____    ______ ____

>  <TORSDO>
F 6

>  <SCORE>
-6.985

>  <RMSD_LB>
3.788

>  <RMSD_UB>
8.706

$$$$
CHEMBL77195
 OpenBabel10172500343D

 23 24  0  0  0  0  0  0  0  0999 V2000
  144.2180  138.6290  153.5920 N   0  0  0  0  0  0  0  0  0  0  0  0
  144.5320  139.6600  154.4360 C   0  0  0  0  0  0  0  0  0  0  0  0
  144.0250  139.8320  155.5430 O   0  0  0  0  0  0  0  0  0  0  0  0
  144.6610  138.5800  152.7140 H   0  0  0  0  0  0  0  0  0  0  0  0
  145.5490  140.5820  153.8710 C   0  0  0  0  0  3  0  0  0  0  0  0
  145.8640  140.5380  152.5730 C   0  0  0  0  0  3  0  0  0  0  0  0
  146.8950  141.3790  151.9410 C   0  0  0  0  0  0  0  0  0  0  0  0
  148.2130  141.4250  152.4220 C   0  0  0  0  0  3  0  0  0  0  0  0
  149.1870  142.1760  151.7570 C   0  0  0  0  0  3  0  0  0  0  0  0
  148.8600  142.8780  150.6020 C   0  0  0  0  0  3  0  0  0  0  0  0
  147.5560  142.8380  150.1100 C   0  0  0  0  0  3  0  0  0  0  0  0
  146.5810  142.0900  150.7780 C   0  0  0  0  0  3  0  0  0  0  0  0
  143.2560  137.6070  153.9500 C   0  0  0  0  0  2  0  0  0  0  0  0
  139.5370  138.5880  153.6710 C   0  0  0  0  0  0  0  0  0  0  0  0
  140.8330  138.4030  154.1830 C   0  0  0  0  0  3  0  0  0  0  0  0
  141.8600  137.8390  153.4040 C   0  0  0  0  0  0  0  0  0  0  0  0
  141.5500  137.4410  152.0970 C   0  0  0  0  0  3  0  0  0  0  0  0
  140.2660  137.6160  151.5700 C   0  0  0  0  0  3  0  0  0  0  0  0
  139.2680  138.1890  152.3550 C   0  0  0  0  0  0  0  0  0  0  0  0
  137.8840  138.3370  155.3670 C   0  0  0  0  0  1  0  0  0  0  0  0
  138.4970  139.1460  154.3720 O   0  0  0  0  0  0  0  0  0  0  0  0
  138.0090  138.3640  151.8460 O   0  0  0  0  0  0  0  0  0  0  0  0
  137.6970  137.8020  151.1650 H   0  0  0  0  0  0  0  0  0  0  0  0
  1 13  1  0  0  0  0
  1  2  1  0  0  0  0
  2  3  2  0  0  0  0
  4  1  1  0  0  0  0
  5  2  1  0  0  0  0
  6  5  2  0  0  0  0
  7  8  1  0  0  0  0
  7  6  1  0  0  0  0
  9  8  2  0  0  0  0
 10  9  1  0  0  0  0
 11 10  2  0  0  0  0
 11 12  1  0  0  0  0
 12  7  2  0  0  0  0
 14 15  1  0  0  0  0
 14 21  1  0  0  0  0
 16 13  1  0  0  0  0
 16 15  2  0  0  0  0
 17 16  1  0  0  0  0
 18 17  2  0  0  0  0
 18 19  1  0  0  0  0
 19 14  2  0  0  0  0
 21 20  1  0  0  0  0
 22 19  1  0  0  0  0
 23 22  1  0  0  0  0
M  END
>  <MODEL>
6

>  <REMARK>
 VINA RESULT:    -6.977      7.163     10.319
 INTER + INTRA:          -9.707
 INTER:                  -9.135
 INTRA:                  -0.572
 UNBOUND:                -0.486
  Name = CHEMBL77195
  7 active torsions:
  status: ('A' for Active; 'I' for Inactive)
    1  A    between atoms: C_1  and  O_2
    2  A    between atoms: O_2  and  C_3
    3  A    between atoms: C_5  and  C_6
    4  A    between atoms: C_6  and  N_7
    5  A    between atoms: C_8  and  C_10
    6  A    between atoms: C_11  and  C_12
    7  A    between atoms: C_20  and  O_21
                            x       y       z     vdW  Elec       q    Type
                         _______ _______ _______ _____ _____    ______ ____

>  <TORSDO>
F 6

>  <SCORE>
-6.977

>  <RMSD_LB>
7.163

>  <RMSD_UB>
10.319

$$$$
CHEMBL77195
 OpenBabel10172500343D

 23 24  0  0  0  0  0  0  0  0999 V2000
  143.9850  137.9340  152.0090 N   0  0  0  0  0  0  0  0  0  0  0  0
  144.8190  137.4880  152.9990 C   0  0  0  0  0  0  0  0  0  0  0  0
  144.5920  136.5120  153.7120 O   0  0  0  0  0  0  0  0  0  0  0  0
  144.2380  138.7380  151.5000 H   0  0  0  0  0  0  0  0  0  0  0  0
  146.0390  138.3190  153.1480 C   0  0  0  0  0  3  0  0  0  0  0  0
  146.0390  139.6040  152.7790 C   0  0  0  0  0  3  0  0  0  0  0  0
  147.2170  140.4860  152.8450 C   0  0  0  0  0  0  0  0  0  0  0  0
  147.8630  140.9480  151.6880 C   0  0  0  0  0  3  0  0  0  0  0  0
  148.9340  141.8430  151.7810 C   0  0  0  0  0  3  0  0  0  0  0  0
  149.3630  142.2920  153.0250 C   0  0  0  0  0  3  0  0  0  0  0  0
  148.7280  141.8440  154.1820 C   0  0  0  0  0  3  0  0  0  0  0  0
  147.6590  140.9460  154.0890 C   0  0  0  0  0  3  0  0  0  0  0  0
  142.7430  137.2630  151.6870 C   0  0  0  0  0  2  0  0  0  0  0  0
  140.3080  138.4900  154.4150 C   0  0  0  0  0  0  0  0  0  0  0  0
  141.4580  137.9860  153.7810 C   0  0  0  0  0  3  0  0  0  0  0  0
  141.5220  137.8310  152.3850 C   0  0  0  0  0  0  0  0  0  0  0  0
  140.3910  138.1760  151.6320 C   0  0  0  0  0  3  0  0  0  0  0  0
  139.2380  138.6780  152.2450 C   0  0  0  0  0  3  0  0  0  0  0  0
  139.2020  138.8350  153.6280 C   0  0  0  0  0  0  0  0  0  0  0  0
  139.8780  137.5370  156.5550 C   0  0  0  0  0  1  0  0  0  0  0  0
  140.1890  138.6810  155.7690 O   0  0  0  0  0  0  0  0  0  0  0  0
  138.0770  139.3270  154.2350 O   0  0  0  0  0  0  0  0  0  0  0  0
  138.1280  139.6780  155.1020 H   0  0  0  0  0  0  0  0  0  0  0  0
  1  2  1  0  0  0  0
  2  5  1  0  0  0  0
  2  3  2  0  0  0  0
  4  1  1  0  0  0  0
  6  7  1  0  0  0  0
  6  5  2  0  0  0  0
  7 12  1  0  0  0  0
  8  9  1  0  0  0  0
  8  7  2  0  0  0  0
  9 10  2  0  0  0  0
 10 11  1  0  0  0  0
 12 11  2  0  0  0  0
 13  1  1  0  0  0  0
 13 16  1  0  0  0  0
 14 21  1  0  0  0  0
 15 14  1  0  0  0  0
 16 15  2  0  0  0  0
 17 18  2  0  0  0  0
 17 16  1  0  0  0  0
 18 19  1  0  0  0  0
 19 22  1  0  0  0  0
 19 14  2  0  0  0  0
 21 20  1  0  0  0  0
 22 23  1  0  0  0  0
M  END
>  <MODEL>
7

>  <REMARK>
 VINA RESULT:    -6.928      6.980     10.425
 INTER + INTRA:          -9.641
 INTER:                  -9.155
 INTRA:                  -0.486
 UNBOUND:                -0.486
  Name = CHEMBL77195
  7 active torsions:
  status: ('A' for Active; 'I' for Inactive)
    1  A    between atoms: C_1  and  O_2
    2  A    between atoms: O_2  and  C_3
    3  A    between atoms: C_5  and  C_6
    4  A    between atoms: C_6  and  N_7
    5  A    between atoms: C_8  and  C_10
    6  A    between atoms: C_11  and  C_12
    7  A    between atoms: C_20  and  O_21
                            x       y       z     vdW  Elec       q    Type
                         _______ _______ _______ _____ _____    ______ ____

>  <TORSDO>
F 6

>  <SCORE>
-6.928

>  <RMSD_LB>
6.980

>  <RMSD_UB>
10.425

$$$$
CHEMBL77195
 OpenBabel10172500343D

 23 24  0  0  0  0  0  0  0  0999 V2000
  138.9590  136.8810  150.2160 N   0  0  0  0  0  0  0  0  0  0  0  0
  137.8670  137.6090  149.8260 C   0  0  0  0  0  0  0  0  0  0  0  0
  137.8750  138.8220  149.6280 O   0  0  0  0  0  0  0  0  0  0  0  0
  138.8560  135.9140  150.3710 H   0  0  0  0  0  0  0  0  0  0  0  0
  136.6420  136.7840  149.6810 C   0  0  0  0  0  3  0  0  0  0  0  0
  136.0530  136.2420  150.7510 C   0  0  0  0  0  3  0  0  0  0  0  0
  134.8670  135.3710  150.6930 C   0  0  0  0  0  0  0  0  0  0  0  0
  133.5820  135.8440  151.0030 C   0  0  0  0  0  3  0  0  0  0  0  0
  132.4660  135.0120  150.8680 C   0  0  0  0  0  3  0  0  0  0  0  0
  132.6190  133.7070  150.4130 C   0  0  0  0  0  3  0  0  0  0  0  0
  133.8880  133.2250  150.0980 C   0  0  0  0  0  3  0  0  0  0  0  0
  135.0040  134.0560  150.2370 C   0  0  0  0  0  3  0  0  0  0  0  0
  140.2600  137.4870  150.4070 C   0  0  0  0  0  2  0  0  0  0  0  0
  140.0590  138.5480  154.1090 C   0  0  0  0  0  0  0  0  0  0  0  0
  139.7000  138.2810  152.7770 C   0  0  0  0  0  3  0  0  0  0  0  0
  140.6230  137.7550  151.8550 C   0  0  0  0  0  0  0  0  0  0  0  0
  141.9320  137.5190  152.2980 C   0  0  0  0  0  3  0  0  0  0  0  0
  142.3080  137.7790  153.6200 C   0  0  0  0  0  3  0  0  0  0  0  0
  141.3730  138.2880  154.5180 C   0  0  0  0  0  0  0  0  0  0  0  0
  138.2480  138.1410  155.6030 C   0  0  0  0  0  1  0  0  0  0  0  0
  139.2020  139.0450  155.0590 O   0  0  0  0  0  0  0  0  0  0  0  0
  141.7340  138.5450  155.8140 O   0  0  0  0  0  0  0  0  0  0  0  0
  142.4500  138.0820  156.2020 H   0  0  0  0  0  0  0  0  0  0  0  0
  1  4  1  0  0  0  0
  1 13  1  0  0  0  0
  2  1  1  0  0  0  0
  3  2  2  0  0  0  0
  5  2  1  0  0  0  0
  5  6  2  0  0  0  0
  7  6  1  0  0  0  0
  7  8  1  0  0  0  0
  9  8  2  0  0  0  0
 10  9  1  0  0  0  0
 11 12  1  0  0  0  0
 11 10  2  0  0  0  0
 12  7  2  0  0  0  0
 13 16  1  0  0  0  0
 14 19  1  0  0  0  0
 14 21  1  0  0  0  0
 15 14  2  0  0  0  0
 16 17  2  0  0  0  0
 16 15  1  0  0  0  0
 17 18  1  0  0  0  0
 18 19  2  0  0  0  0
 19 22  1  0  0  0  0
 21 20  1  0  0  0  0
 22 23  1  0  0  0  0
M  END
>  <MODEL>
8

>  <REMARK>
 VINA RESULT:    -6.911      3.909      8.737
 INTER + INTRA:          -9.619
 INTER:                  -9.056
 INTRA:                  -0.563
 UNBOUND:                -0.486
  Name = CHEMBL77195
  7 active torsions:
  status: ('A' for Active; 'I' for Inactive)
    1  A    between atoms: C_1  and  O_2
    2  A    between atoms: O_2  and  C_3
    3  A    between atoms: C_5  and  C_6
    4  A    between atoms: C_6  and  N_7
    5  A    between atoms: C_8  and  C_10
    6  A    between atoms: C_11  and  C_12
    7  A    between atoms: C_20  and  O_21
                            x       y       z     vdW  Elec       q    Type
                         _______ _______ _______ _____ _____    ______ ____

>  <TORSDO>
F 6

>  <SCORE>
-6.911

>  <RMSD_LB>
3.909

>  <RMSD_UB>
8.737

$$$$
CHEMBL77195
 OpenBabel10172500343D

 23 24  0  0  0  0  0  0  0  0999 V2000
  139.3150  137.8020  154.5570 N   0  0  0  0  0  0  0  0  0  0  0  0
  140.5120  138.4640  154.5080 C   0  0  0  0  0  0  0  0  0  0  0  0
  140.8330  139.3780  155.2670 O   0  0  0  0  0  0  0  0  0  0  0  0
  139.1350  137.0950  153.8960 H   0  0  0  0  0  0  0  0  0  0  0  0
  141.3980  137.9820  153.4200 C   0  0  0  0  0  3  0  0  0  0  0  0
  140.8970  137.6650  152.2220 C   0  0  0  0  0  3  0  0  0  0  0  0
  141.6940  137.1310  151.1040 C   0  0  0  0  0  0  0  0  0  0  0  0
  143.0880  136.9850  151.1900 C   0  0  0  0  0  3  0  0  0  0  0  0
  143.8080  136.4080  150.1400 C   0  0  0  0  0  3  0  0  0  0  0  0
  143.1470  135.9620  149.0010 C   0  0  0  0  0  3  0  0  0  0  0  0
  141.7630  136.0970  148.9040 C   0  0  0  0  0  3  0  0  0  0  0  0
  141.0430  136.6780  149.9530 C   0  0  0  0  0  3  0  0  0  0  0  0
  138.3060  138.1070  155.5500 C   0  0  0  0  0  2  0  0  0  0  0  0
  135.6240  135.4370  154.8070 C   0  0  0  0  0  0  0  0  0  0  0  0
  136.6200  136.4130  154.6290 C   0  0  0  0  0  3  0  0  0  0  0  0
  137.2500  137.0320  155.7240 C   0  0  0  0  0  0  0  0  0  0  0  0
  136.8410  136.6630  157.0130 C   0  0  0  0  0  3  0  0  0  0  0  0
  135.8510  135.6950  157.2100 C   0  0  0  0  0  3  0  0  0  0  0  0
  135.2500  135.0860  156.1110 C   0  0  0  0  0  0  0  0  0  0  0  0
  134.0300  135.5340  153.0400 C   0  0  0  0  0  1  0  0  0  0  0  0
  134.9840  134.7850  153.7820 O   0  0  0  0  0  0  0  0  0  0  0  0
  134.2810  134.1360  156.2950 O   0  0  0  0  0  0  0  0  0  0  0  0
  134.0670  133.8470  157.1600 H   0  0  0  0  0  0  0  0  0  0  0  0
  1 13  1  0  0  0  0
  2  1  1  0  0  0  0
  2  3  2  0  0  0  0
  4  1  1  0  0  0  0
  5  2  1  0  0  0  0
  6  5  2  0  0  0  0
  7  8  1  0  0  0  0
  7  6  1  0  0  0  0
  9  8  2  0  0  0  0
 10  9  1  0  0  0  0
 11 10  2  0  0  0  0
 11 12  1  0  0  0  0
 12  7  2  0  0  0  0
 13 16  1  0  0  0  0
 14 19  1  0  0  0  0
 15 14  2  0  0  0  0
 15 16  1  0  0  0  0
 16 17  2  0  0  0  0
 17 18  1  0  0  0  0
 19 22  1  0  0  0  0
 19 18  2  0  0  0  0
 20 21  1  0  0  0  0
 21 14  1  0  0  0  0
 22 23  1  0  0  0  0
M  END
>  <MODEL>
9

>  <REMARK>
 VINA RESULT:    -6.904      4.069      7.364
 INTER + INTRA:          -9.610
 INTER:                  -9.111
 INTRA:                  -0.499
 UNBOUND:                -0.486
  Name = CHEMBL77195
  7 active torsions:
  status: ('A' for Active; 'I' for Inactive)
    1  A    between atoms: C_1  and  O_2
    2  A    between atoms: O_2  and  C_3
    3  A    between atoms: C_5  and  C_6
    4  A    between atoms: C_6  and  N_7
    5  A    between atoms: C_8  and  C_10
    6  A    between atoms: C_11  and  C_12
    7  A    between atoms: C_20  and  O_21
                            x       y       z     vdW  Elec       q    Type
                         _______ _______ _______ _____ _____    ______ ____

>  <TORSDO>
F 6

>  <SCORE>
-6.904

>  <RMSD_LB>
4.069

>  <RMSD_UB>
7.364

$$$$
