1548943
 OpenBabel10162523323D

 24 24  0  0  0  0  0  0  0  0999 V2000
  135.5070  135.7020  146.3350 O   0  0  0  0  0  0  0  0  0  0  0  0
  134.5610  134.9960  145.9860 C   0  0  0  0  0  0  0  0  0  0  0  0
  133.2990  135.1060  146.5140 N   0  0  0  0  0  0  0  0  0  0  0  0
  132.5840  134.5240  146.1700 H   0  0  0  0  0  0  0  0  0  0  0  0
  132.9940  136.0550  147.5630 C   0  0  0  0  0  2  0  0  0  0  0  0
  133.1610  135.4620  148.9410 C   0  0  0  0  0  0  0  0  0  0  0  0
  133.8040  136.1910  149.9620 C   0  0  0  0  0  3  0  0  0  0  0  0
  134.0160  135.6160  151.2180 C   0  0  0  0  0  0  0  0  0  0  0  0
  133.5930  134.3010  151.4370 C   0  0  0  0  0  0  0  0  0  0  0  0
  132.9610  133.5630  150.4440 C   0  0  0  0  0  3  0  0  0  0  0  0
  132.7450  134.1460  149.1960 C   0  0  0  0  0  3  0  0  0  0  0  0
  134.6240  136.2120  152.2930 O   0  0  0  0  0  0  0  0  0  0  0  0
  136.0470  136.2320  152.2920 C   0  0  0  0  0  1  0  0  0  0  0  0
  133.8050  133.6980  152.6500 O   0  0  0  0  0  0  0  0  0  0  0  0
  133.1590  133.7630  153.3250 H   0  0  0  0  0  0  0  0  0  0  0  0
  134.7220  133.9340  144.9190 C   0  0  0  0  0  2  0  0  0  0  0  0
  136.0180  133.1350  145.0460 C   0  0  0  0  0  2  0  0  0  0  0  0
  135.9670  131.7460  144.3980 C   0  0  0  0  0  2  0  0  0  0  0  0
  137.1870  131.4630  143.5210 C   0  0  0  0  0  2  0  0  0  0  0  0
  137.6040  132.6800  142.7510 C   0  0  0  0  0  3  0  0  0  0  0  0
  137.2620  132.8790  141.4680 C   0  0  0  0  0  3  0  0  0  0  0  0
  137.6680  134.0910  140.6740 C   0  0  0  0  0  3  0  0  0  0  0  0
  136.5340  134.5050  139.7400 C   0  0  0  0  0  1  0  0  0  0  0  0
  138.0440  135.2370  141.6120 C   0  0  0  0  0  1  0  0  0  0  0  0
  2  1  2  0  0  0  0
  2  3  1  0  0  0  0
  3  5  1  0  0  0  0
  4  3  1  0  0  0  0
  5  6  1  0  0  0  0
  6 11  2  0  0  0  0
  6  7  1  0  0  0  0
  7  8  2  0  0  0  0
  8  9  1  0  0  0  0
  8 12  1  0  0  0  0
  9 14  1  0  0  0  0
 10  9  2  0  0  0  0
 11 10  1  0  0  0  0
 13 12  1  0  0  0  0
 14 15  1  0  0  0  0
 16 17  1  0  0  0  0
 16  2  1  0  0  0  0
 18 17  1  0  0  0  0
 19 18  1  0  0  0  0
 20 19  1  0  0  0  0
 21 20  2  0  0  0  0
 22 21  1  0  0  0  0
 22 24  1  0  0  0  0
 23 22  1  0  0  0  0
M  END
>  <MODEL>
1

>  <REMARK>
 VINA RESULT:    -6.366      0.000      0.000
 INTER + INTRA:         -10.478
 INTER:                  -9.642
 INTRA:                  -0.837
 UNBOUND:                -0.577
  Name = 1548943
  13 active torsions:
  status: ('A' for Active; 'I' for Inactive)
    1  A    between atoms: C_2  and  C_14
    2  A    between atoms: N_3  and  C_4
    3  A    between atoms: C_4  and  C_5
    4  A    between atoms: C_7  and  O_8
    5  A    between atoms: O_8  and  C_9
    6  A    between atoms: C_10  and  O_11
    7  A    between atoms: C_14  and  C_15
    8  A    between atoms: C_15  and  C_16
    9  A    between atoms: C_16  and  C_17
   10  A    between atoms: C_17  and  C_18
   11  A    between atoms: C_19  and  C_20
   12  A    between atoms: C_20  and  C_21
   13  A    between atoms: C_20  and  C_22
                            x       y       z     vdW  Elec       q    Type
                         _______ _______ _______ _____ _____    ______ ____

>  <TORSDO>
F 10

>  <SCORE>
-6.366

>  <RMSD_LB>
0.000

>  <RMSD_UB>
0.000

$$$$
1548943
 OpenBabel10162523323D

 24 24  0  0  0  0  0  0  0  0999 V2000
  141.4150  139.2580  148.7420 O   0  0  0  0  0  0  0  0  0  0  0  0
  141.3930  139.4280  149.9600 C   0  0  0  0  0  0  0  0  0  0  0  0
  142.4540  139.9240  150.6740 N   0  0  0  0  0  0  0  0  0  0  0  0
  142.3590  140.0570  151.6450 H   0  0  0  0  0  0  0  0  0  0  0  0
  143.7100  140.2570  150.0370 C   0  0  0  0  0  2  0  0  0  0  0  0
  144.7510  140.7240  151.0260 C   0  0  0  0  0  0  0  0  0  0  0  0
  145.1610  139.8880  152.0850 C   0  0  0  0  0  3  0  0  0  0  0  0
  146.0760  140.3460  153.0370 C   0  0  0  0  0  0  0  0  0  0  0  0
  146.5640  141.6530  152.9280 C   0  0  0  0  0  0  0  0  0  0  0  0
  146.1700  142.4940  151.8960 C   0  0  0  0  0  3  0  0  0  0  0  0
  145.2640  142.0280  150.9440 C   0  0  0  0  0  3  0  0  0  0  0  0
  146.5560  139.6400  154.1090 O   0  0  0  0  0  0  0  0  0  0  0  0
  145.6000  138.9150  154.8760 C   0  0  0  0  0  1  0  0  0  0  0  0
  147.4440  142.1420  153.8570 O   0  0  0  0  0  0  0  0  0  0  0  0
  147.2070  142.8800  154.3840 H   0  0  0  0  0  0  0  0  0  0  0  0
  140.1630  139.1010  150.7800 C   0  0  0  0  0  2  0  0  0  0  0  0
  140.4470  138.1690  151.9570 C   0  0  0  0  0  2  0  0  0  0  0  0
  139.2860  138.0410  152.9520 C   0  0  0  0  0  2  0  0  0  0  0  0
  138.0190  137.4810  152.3040 C   0  0  0  0  0  2  0  0  0  0  0  0
  137.2150  136.6750  153.2780 C   0  0  0  0  0  3  0  0  0  0  0  0
  136.2230  135.8540  152.8970 C   0  0  0  0  0  3  0  0  0  0  0  0
  135.4020  135.0350  153.8550 C   0  0  0  0  0  3  0  0  0  0  0  0
  135.6780  135.4800  155.2890 C   0  0  0  0  0  1  0  0  0  0  0  0
  133.9160  135.1650  153.5230 C   0  0  0  0  0  1  0  0  0  0  0  0
  1  2  2  0  0  0  0
  2  3  1  0  0  0  0
  2 16  1  0  0  0  0
  3  4  1  0  0  0  0
  5  3  1  0  0  0  0
  5  6  1  0  0  0  0
  6  7  1  0  0  0  0
  7  8  2  0  0  0  0
  8 12  1  0  0  0  0
  9  8  1  0  0  0  0
  9 14  1  0  0  0  0
 10  9  2  0  0  0  0
 11  6  2  0  0  0  0
 11 10  1  0  0  0  0
 12 13  1  0  0  0  0
 14 15  1  0  0  0  0
 16 17  1  0  0  0  0
 17 18  1  0  0  0  0
 19 18  1  0  0  0  0
 19 20  1  0  0  0  0
 21 20  2  0  0  0  0
 21 22  1  0  0  0  0
 22 23  1  0  0  0  0
 24 22  1  0  0  0  0
M  END
>  <MODEL>
2

>  <REMARK>
 VINA RESULT:    -5.805      8.458     12.391
 INTER + INTRA:          -9.606
 INTER:                  -9.065
 INTRA:                  -0.541
 UNBOUND:                -0.577
  Name = 1548943
  13 active torsions:
  status: ('A' for Active; 'I' for Inactive)
    1  A    between atoms: C_2  and  C_14
    2  A    between atoms: N_3  and  C_4
    3  A    between atoms: C_4  and  C_5
    4  A    between atoms: C_7  and  O_8
    5  A    between atoms: O_8  and  C_9
    6  A    between atoms: C_10  and  O_11
    7  A    between atoms: C_14  and  C_15
    8  A    between atoms: C_15  and  C_16
    9  A    between atoms: C_16  and  C_17
   10  A    between atoms: C_17  and  C_18
   11  A    between atoms: C_19  and  C_20
   12  A    between atoms: C_20  and  C_21
   13  A    between atoms: C_20  and  C_22
                            x       y       z     vdW  Elec       q    Type
                         _______ _______ _______ _____ _____    ______ ____

>  <TORSDO>
F 10

>  <SCORE>
-5.805

>  <RMSD_LB>
8.458

>  <RMSD_UB>
12.391

$$$$
1548943
 OpenBabel10162523323D

 24 24  0  0  0  0  0  0  0  0999 V2000
  138.4350  134.2850  142.9720 O   0  0  0  0  0  0  0  0  0  0  0  0
  137.3160  133.7940  142.8270 C   0  0  0  0  0  0  0  0  0  0  0  0
  136.2210  134.5120  142.4170 N   0  0  0  0  0  0  0  0  0  0  0  0
  135.3610  134.0490  142.2980 H   0  0  0  0  0  0  0  0  0  0  0  0
  136.2990  135.9320  142.1540 C   0  0  0  0  0  2  0  0  0  0  0  0
  135.5020  136.7450  143.1440 C   0  0  0  0  0  0  0  0  0  0  0  0
  134.9560  136.1410  144.2950 C   0  0  0  0  0  3  0  0  0  0  0  0
  134.1630  136.8800  145.1770 C   0  0  0  0  0  0  0  0  0  0  0  0
  133.9090  138.2250  144.8880 C   0  0  0  0  0  0  0  0  0  0  0  0
  134.4330  138.8400  143.7580 C   0  0  0  0  0  3  0  0  0  0  0  0
  135.2300  138.0980  142.8880 C   0  0  0  0  0  3  0  0  0  0  0  0
  133.5770  136.4170  146.3270 O   0  0  0  0  0  0  0  0  0  0  0  0
  134.2100  136.7690  147.5520 C   0  0  0  0  0  1  0  0  0  0  0  0
  133.1170  138.9730  145.7190 O   0  0  0  0  0  0  0  0  0  0  0  0
  133.2130  139.9050  145.7450 H   0  0  0  0  0  0  0  0  0  0  0  0
  137.0590  132.3250  143.0900 C   0  0  0  0  0  2  0  0  0  0  0  0
  136.1330  132.0720  144.2790 C   0  0  0  0  0  2  0  0  0  0  0  0
  136.8580  131.9400  145.6240 C   0  0  0  0  0  2  0  0  0  0  0  0
  136.9130  133.2600  146.3930 C   0  0  0  0  0  2  0  0  0  0  0  0
  135.7060  133.4390  147.2640 C   0  0  0  0  0  3  0  0  0  0  0  0
  135.0070  132.4040  147.7560 C   0  0  0  0  0  3  0  0  0  0  0  0
  133.7930  132.5570  148.6310 C   0  0  0  0  0  3  0  0  0  0  0  0
  134.1900  133.1800  149.9680 C   0  0  0  0  0  1  0  0  0  0  0  0
  132.7380  133.4100  147.9280 C   0  0  0  0  0  1  0  0  0  0  0  0
  2  1  2  0  0  0  0
  2 16  1  0  0  0  0
  3  2  1  0  0  0  0
  4  3  1  0  0  0  0
  5  3  1  0  0  0  0
  5  6  1  0  0  0  0
  6  7  1  0  0  0  0
  7  8  2  0  0  0  0
  8 12  1  0  0  0  0
  9  8  1  0  0  0  0
  9 14  1  0  0  0  0
 10  9  2  0  0  0  0
 11  6  2  0  0  0  0
 11 10  1  0  0  0  0
 12 13  1  0  0  0  0
 14 15  1  0  0  0  0
 16 17  1  0  0  0  0
 17 18  1  0  0  0  0
 18 19  1  0  0  0  0
 19 20  1  0  0  0  0
 20 21  2  0  0  0  0
 21 22  1  0  0  0  0
 22 23  1  0  0  0  0
 24 22  1  0  0  0  0
M  END
>  <MODEL>
3

>  <REMARK>
 VINA RESULT:    -5.660      2.961      6.443
 INTER + INTRA:          -9.381
 INTER:                  -8.274
 INTRA:                  -1.107
 UNBOUND:                -0.577
  Name = 1548943
  13 active torsions:
  status: ('A' for Active; 'I' for Inactive)
    1  A    between atoms: C_2  and  C_14
    2  A    between atoms: N_3  and  C_4
    3  A    between atoms: C_4  and  C_5
    4  A    between atoms: C_7  and  O_8
    5  A    between atoms: O_8  and  C_9
    6  A    between atoms: C_10  and  O_11
    7  A    between atoms: C_14  and  C_15
    8  A    between atoms: C_15  and  C_16
    9  A    between atoms: C_16  and  C_17
   10  A    between atoms: C_17  and  C_18
   11  A    between atoms: C_19  and  C_20
   12  A    between atoms: C_20  and  C_21
   13  A    between atoms: C_20  and  C_22
                            x       y       z     vdW  Elec       q    Type
                         _______ _______ _______ _____ _____    ______ ____

>  <TORSDO>
F 10

>  <SCORE>
-5.660

>  <RMSD_LB>
2.961

>  <RMSD_UB>
6.443

$$$$
1548943
 OpenBabel10162523323D

 24 24  0  0  0  0  0  0  0  0999 V2000
  135.0690  136.6680  143.1100 O   0  0  0  0  0  0  0  0  0  0  0  0
  134.4010  137.4920  143.7330 C   0  0  0  0  0  0  0  0  0  0  0  0
  133.6400  138.4620  143.1310 N   0  0  0  0  0  0  0  0  0  0  0  0
  133.1120  139.0740  143.6920 H   0  0  0  0  0  0  0  0  0  0  0  0
  133.5960  138.6080  141.6920 C   0  0  0  0  0  2  0  0  0  0  0  0
  133.9170  140.0140  141.2470 C   0  0  0  0  0  0  0  0  0  0  0  0
  133.8920  140.3570  139.8790 C   0  0  0  0  0  3  0  0  0  0  0  0
  134.2530  141.6410  139.4630 C   0  0  0  0  0  0  0  0  0  0  0  0
  134.6530  142.5740  140.4260 C   0  0  0  0  0  0  0  0  0  0  0  0
  134.6890  142.2560  141.7780 C   0  0  0  0  0  3  0  0  0  0  0  0
  134.3190  140.9760  142.1870 C   0  0  0  0  0  3  0  0  0  0  0  0
  134.2700  142.1030  138.1720 O   0  0  0  0  0  0  0  0  0  0  0  0
  133.1580  141.7550  137.3550 C   0  0  0  0  0  1  0  0  0  0  0  0
  135.0360  143.8350  140.0510 O   0  0  0  0  0  0  0  0  0  0  0  0
  135.6820  143.9490  139.3830 H   0  0  0  0  0  0  0  0  0  0  0  0
  134.3630  137.4940  145.2470 C   0  0  0  0  0  2  0  0  0  0  0  0
  133.6020  136.3090  145.8380 C   0  0  0  0  0  2  0  0  0  0  0  0
  132.4500  136.7030  146.7710 C   0  0  0  0  0  2  0  0  0  0  0  0
  132.9220  136.9900  148.1960 C   0  0  0  0  0  2  0  0  0  0  0  0
  133.4660  135.7580  148.8530 C   0  0  0  0  0  3  0  0  0  0  0  0
  132.8010  134.5920  148.8730 C   0  0  0  0  0  3  0  0  0  0  0  0
  133.3250  133.3430  149.5260 C   0  0  0  0  0  3  0  0  0  0  0  0
  134.0600  132.4860  148.4970 C   0  0  0  0  0  1  0  0  0  0  0  0
  134.2470  133.7010  150.6900 C   0  0  0  0  0  1  0  0  0  0  0  0
  1  2  2  0  0  0  0
  2 16  1  0  0  0  0
  3  4  1  0  0  0  0
  3  2  1  0  0  0  0
  5  3  1  0  0  0  0
  6  5  1  0  0  0  0
  6 11  1  0  0  0  0
  7  6  2  0  0  0  0
  8  7  1  0  0  0  0
  8  9  2  0  0  0  0
  9 10  1  0  0  0  0
 10 11  2  0  0  0  0
 12  8  1  0  0  0  0
 13 12  1  0  0  0  0
 14  9  1  0  0  0  0
 15 14  1  0  0  0  0
 16 17  1  0  0  0  0
 17 18  1  0  0  0  0
 18 19  1  0  0  0  0
 19 20  1  0  0  0  0
 20 21  2  0  0  0  0
 21 22  1  0  0  0  0
 22 24  1  0  0  0  0
 23 22  1  0  0  0  0
M  END
>  <MODEL>
4

>  <REMARK>
 VINA RESULT:    -5.012      5.604     10.070
 INTER + INTRA:          -8.373
 INTER:                  -7.669
 INTRA:                  -0.705
 UNBOUND:                -0.577
  Name = 1548943
  13 active torsions:
  status: ('A' for Active; 'I' for Inactive)
    1  A    between atoms: C_2  and  C_14
    2  A    between atoms: N_3  and  C_4
    3  A    between atoms: C_4  and  C_5
    4  A    between atoms: C_7  and  O_8
    5  A    between atoms: O_8  and  C_9
    6  A    between atoms: C_10  and  O_11
    7  A    between atoms: C_14  and  C_15
    8  A    between atoms: C_15  and  C_16
    9  A    between atoms: C_16  and  C_17
   10  A    between atoms: C_17  and  C_18
   11  A    between atoms: C_19  and  C_20
   12  A    between atoms: C_20  and  C_21
   13  A    between atoms: C_20  and  C_22
                            x       y       z     vdW  Elec       q    Type
                         _______ _______ _______ _____ _____    ______ ____

>  <TORSDO>
F 10

>  <SCORE>
-5.012

>  <RMSD_LB>
5.604

>  <RMSD_UB>
10.070

$$$$
1548943
 OpenBabel10162523323D

 24 24  0  0  0  0  0  0  0  0999 V2000
  136.0920  136.5590  139.6710 O   0  0  0  0  0  0  0  0  0  0  0  0
  135.5180  136.7260  140.7470 C   0  0  0  0  0  0  0  0  0  0  0  0
  135.8820  136.0880  141.9060 N   0  0  0  0  0  0  0  0  0  0  0  0
  135.3940  136.2880  142.7370 H   0  0  0  0  0  0  0  0  0  0  0  0
  136.9660  135.1300  141.9380 C   0  0  0  0  0  2  0  0  0  0  0  0
  136.6900  133.9810  142.8770 C   0  0  0  0  0  0  0  0  0  0  0  0
  136.0420  134.2000  144.1100 C   0  0  0  0  0  3  0  0  0  0  0  0
  135.8460  133.1460  145.0060 C   0  0  0  0  0  0  0  0  0  0  0  0
  136.3170  131.8740  144.6630 C   0  0  0  0  0  0  0  0  0  0  0  0
  136.9610  131.6360  143.4560 C   0  0  0  0  0  3  0  0  0  0  0  0
  137.1450  132.6910  142.5630 C   0  0  0  0  0  3  0  0  0  0  0  0
  135.2320  133.2230  146.2300 O   0  0  0  0  0  0  0  0  0  0  0  0
  134.1180  134.1030  146.3310 C   0  0  0  0  0  1  0  0  0  0  0  0
  136.1610  130.8230  145.5280 O   0  0  0  0  0  0  0  0  0  0  0  0
  135.5050  130.8590  146.1950 H   0  0  0  0  0  0  0  0  0  0  0  0
  134.3450  137.6740  140.8760 C   0  0  0  0  0  2  0  0  0  0  0  0
  133.7170  138.0520  139.5350 C   0  0  0  0  0  2  0  0  0  0  0  0
  132.1900  138.1890  139.5720 C   0  0  0  0  0  2  0  0  0  0  0  0
  131.6730  138.6150  140.9460 C   0  0  0  0  0  2  0  0  0  0  0  0
  130.1790  138.7300  140.9590 C   0  0  0  0  0  3  0  0  0  0  0  0
  129.4850  139.2910  139.9560 C   0  0  0  0  0  3  0  0  0  0  0  0
  127.9860  139.4180  139.9450 C   0  0  0  0  0  3  0  0  0  0  0  0
  127.3810  138.5280  141.0290 C   0  0  0  0  0  1  0  0  0  0  0  0
  127.5770  140.8760  140.1510 C   0  0  0  0  0  1  0  0  0  0  0  0
  1  2  2  0  0  0  0
  2 16  1  0  0  0  0
  2  3  1  0  0  0  0
  3  5  1  0  0  0  0
  3  4  1  0  0  0  0
  5  6  1  0  0  0  0
  6  7  1  0  0  0  0
  7  8  2  0  0  0  0
  8 12  1  0  0  0  0
  9  8  1  0  0  0  0
  9 14  1  0  0  0  0
 10  9  2  0  0  0  0
 11  6  2  0  0  0  0
 11 10  1  0  0  0  0
 12 13  1  0  0  0  0
 14 15  1  0  0  0  0
 17 18  1  0  0  0  0
 17 16  1  0  0  0  0
 18 19  1  0  0  0  0
 19 20  1  0  0  0  0
 21 20  2  0  0  0  0
 22 21  1  0  0  0  0
 22 24  1  0  0  0  0
 22 23  1  0  0  0  0
M  END
>  <MODEL>
5

>  <REMARK>
 VINA RESULT:    -4.997      5.412      8.170
 INTER + INTRA:          -8.349
 INTER:                  -7.747
 INTRA:                  -0.602
 UNBOUND:                -0.577
  Name = 1548943
  13 active torsions:
  status: ('A' for Active; 'I' for Inactive)
    1  A    between atoms: C_2  and  C_14
    2  A    between atoms: N_3  and  C_4
    3  A    between atoms: C_4  and  C_5
    4  A    between atoms: C_7  and  O_8
    5  A    between atoms: O_8  and  C_9
    6  A    between atoms: C_10  and  O_11
    7  A    between atoms: C_14  and  C_15
    8  A    between atoms: C_15  and  C_16
    9  A    between atoms: C_16  and  C_17
   10  A    between atoms: C_17  and  C_18
   11  A    between atoms: C_19  and  C_20
   12  A    between atoms: C_20  and  C_21
   13  A    between atoms: C_20  and  C_22
                            x       y       z     vdW  Elec       q    Type
                         _______ _______ _______ _____ _____    ______ ____

>  <TORSDO>
F 10

>  <SCORE>
-4.997

>  <RMSD_LB>
5.412

>  <RMSD_UB>
8.170

$$$$
1548943
 OpenBabel10162523323D

 24 24  0  0  0  0  0  0  0  0999 V2000
  136.2410  136.3070  139.6340 O   0  0  0  0  0  0  0  0  0  0  0  0
  135.6580  136.4610  140.7070 C   0  0  0  0  0  0  0  0  0  0  0  0
  135.9710  135.7640  141.8460 N   0  0  0  0  0  0  0  0  0  0  0  0
  135.4790  135.9550  142.6760 H   0  0  0  0  0  0  0  0  0  0  0  0
  137.0080  134.7530  141.8570 C   0  0  0  0  0  2  0  0  0  0  0  0
  136.7510  133.6780  142.8860 C   0  0  0  0  0  0  0  0  0  0  0  0
  136.0350  133.9690  144.0650 C   0  0  0  0  0  3  0  0  0  0  0  0
  135.8550  132.9900  145.0450 C   0  0  0  0  0  0  0  0  0  0  0  0
  136.4110  131.7220  144.8410 C   0  0  0  0  0  0  0  0  0  0  0  0
  137.1240  131.4160  143.6900 C   0  0  0  0  0  3  0  0  0  0  0  0
  137.2920  132.3950  142.7120 C   0  0  0  0  0  3  0  0  0  0  0  0
  135.1810  133.1390  146.2300 O   0  0  0  0  0  0  0  0  0  0  0  0
  134.2560  134.2190  146.3060 C   0  0  0  0  0  1  0  0  0  0  0  0
  136.2730  130.7450  145.7930 O   0  0  0  0  0  0  0  0  0  0  0  0
  136.8450  130.0030  145.7870 H   0  0  0  0  0  0  0  0  0  0  0  0
  134.5290  137.4590  140.8550 C   0  0  0  0  0  2  0  0  0  0  0  0
  133.8070  137.7600  139.5430 C   0  0  0  0  0  2  0  0  0  0  0  0
  132.4570  138.4660  139.7150 C   0  0  0  0  0  2  0  0  0  0  0  0
  131.5840  138.3770  138.4630 C   0  0  0  0  0  2  0  0  0  0  0  0
  132.4000  138.0590  137.2470 C   0  0  0  0  0  3  0  0  0  0  0  0
  131.9030  137.3910  136.1930 C   0  0  0  0  0  3  0  0  0  0  0  0
  132.7020  137.0600  134.9620 C   0  0  0  0  0  3  0  0  0  0  0  0
  132.1860  137.8690  133.7740 C   0  0  0  0  0  1  0  0  0  0  0  0
  134.1850  137.3360  135.2030 C   0  0  0  0  0  1  0  0  0  0  0  0
  1  2  2  0  0  0  0
  2 16  1  0  0  0  0
  2  3  1  0  0  0  0
  3  5  1  0  0  0  0
  3  4  1  0  0  0  0
  5  6  1  0  0  0  0
  6  7  1  0  0  0  0
  7  8  2  0  0  0  0
  8 12  1  0  0  0  0
  9  8  1  0  0  0  0
  9 14  1  0  0  0  0
 10  9  2  0  0  0  0
 11  6  2  0  0  0  0
 11 10  1  0  0  0  0
 12 13  1  0  0  0  0
 15 14  1  0  0  0  0
 17 18  1  0  0  0  0
 17 16  1  0  0  0  0
 19 18  1  0  0  0  0
 20 19  1  0  0  0  0
 21 20  2  0  0  0  0
 22 24  1  0  0  0  0
 22 21  1  0  0  0  0
 23 22  1  0  0  0  0
M  END
>  <MODEL>
6

>  <REMARK>
 VINA RESULT:    -4.857      4.506      7.600
 INTER + INTRA:          -8.132
 INTER:                  -7.472
 INTRA:                  -0.659
 UNBOUND:                -0.577
  Name = 1548943
  13 active torsions:
  status: ('A' for Active; 'I' for Inactive)
    1  A    between atoms: C_2  and  C_14
    2  A    between atoms: N_3  and  C_4
    3  A    between atoms: C_4  and  C_5
    4  A    between atoms: C_7  and  O_8
    5  A    between atoms: O_8  and  C_9
    6  A    between atoms: C_10  and  O_11
    7  A    between atoms: C_14  and  C_15
    8  A    between atoms: C_15  and  C_16
    9  A    between atoms: C_16  and  C_17
   10  A    between atoms: C_17  and  C_18
   11  A    between atoms: C_19  and  C_20
   12  A    between atoms: C_20  and  C_21
   13  A    between atoms: C_20  and  C_22
                            x       y       z     vdW  Elec       q    Type
                         _______ _______ _______ _____ _____    ______ ____

>  <TORSDO>
F 10

>  <SCORE>
-4.857

>  <RMSD_LB>
4.506

>  <RMSD_UB>
7.600

$$$$
1548943
 OpenBabel10162523323D

 24 24  0  0  0  0  0  0  0  0999 V2000
  134.6240  137.1050  142.4610 O   0  0  0  0  0  0  0  0  0  0  0  0
  134.8700  137.3350  143.6440 C   0  0  0  0  0  0  0  0  0  0  0  0
  134.6820  138.5600  144.2330 N   0  0  0  0  0  0  0  0  0  0  0  0
  134.8770  138.6660  145.1920 H   0  0  0  0  0  0  0  0  0  0  0  0
  134.2050  139.6990  143.4800 C   0  0  0  0  0  2  0  0  0  0  0  0
  135.3330  140.5200  142.9020 C   0  0  0  0  0  0  0  0  0  0  0  0
  135.1190  141.3420  141.7760 C   0  0  0  0  0  3  0  0  0  0  0  0
  136.1780  142.0500  141.2030 C   0  0  0  0  0  0  0  0  0  0  0  0
  137.4560  141.9150  141.7570 C   0  0  0  0  0  0  0  0  0  0  0  0
  137.6900  141.1090  142.8630 C   0  0  0  0  0  3  0  0  0  0  0  0
  136.6260  140.4120  143.4350 C   0  0  0  0  0  3  0  0  0  0  0  0
  136.1070  142.8800  140.1140 O   0  0  0  0  0  0  0  0  0  0  0  0
  135.0480  143.8330  140.1080 C   0  0  0  0  0  1  0  0  0  0  0  0
  138.5220  142.5780  141.2060 O   0  0  0  0  0  0  0  0  0  0  0  0
  138.3780  143.3310  140.6690 H   0  0  0  0  0  0  0  0  0  0  0  0
  135.4030  136.2560  144.5630 C   0  0  0  0  0  2  0  0  0  0  0  0
  134.3100  135.3790  145.1710 C   0  0  0  0  0  2  0  0  0  0  0  0
  134.7190  133.9150  145.3750 C   0  0  0  0  0  2  0  0  0  0  0  0
  134.2430  133.3550  146.7160 C   0  0  0  0  0  2  0  0  0  0  0  0
  134.2880  134.3960  147.7930 C   0  0  0  0  0  3  0  0  0  0  0  0
  133.2840  134.5830  148.6650 C   0  0  0  0  0  3  0  0  0  0  0  0
  133.3050  135.6210  149.7530 C   0  0  0  0  0  3  0  0  0  0  0  0
  132.7590  136.9440  149.2220 C   0  0  0  0  0  1  0  0  0  0  0  0
  132.4940  135.1430  150.9560 C   0  0  0  0  0  1  0  0  0  0  0  0
  1  2  2  0  0  0  0
  2  3  1  0  0  0  0
  2 16  1  0  0  0  0
  3  4  1  0  0  0  0
  5  3  1  0  0  0  0
  6 11  1  0  0  0  0
  6  5  1  0  0  0  0
  7  6  2  0  0  0  0
  8  9  2  0  0  0  0
  8  7  1  0  0  0  0
  9 10  1  0  0  0  0
 10 11  2  0  0  0  0
 12  8  1  0  0  0  0
 13 12  1  0  0  0  0
 14  9  1  0  0  0  0
 15 14  1  0  0  0  0
 16 17  1  0  0  0  0
 17 18  1  0  0  0  0
 18 19  1  0  0  0  0
 19 20  1  0  0  0  0
 20 21  2  0  0  0  0
 21 22  1  0  0  0  0
 22 24  1  0  0  0  0
 23 22  1  0  0  0  0
M  END
>  <MODEL>
7

>  <REMARK>
 VINA RESULT:    -4.563      5.218      9.289
 INTER + INTRA:          -7.675
 INTER:                  -6.965
 INTRA:                  -0.710
 UNBOUND:                -0.577
  Name = 1548943
  13 active torsions:
  status: ('A' for Active; 'I' for Inactive)
    1  A    between atoms: C_2  and  C_14
    2  A    between atoms: N_3  and  C_4
    3  A    between atoms: C_4  and  C_5
    4  A    between atoms: C_7  and  O_8
    5  A    between atoms: O_8  and  C_9
    6  A    between atoms: C_10  and  O_11
    7  A    between atoms: C_14  and  C_15
    8  A    between atoms: C_15  and  C_16
    9  A    between atoms: C_16  and  C_17
   10  A    between atoms: C_17  and  C_18
   11  A    between atoms: C_19  and  C_20
   12  A    between atoms: C_20  and  C_21
   13  A    between atoms: C_20  and  C_22
                            x       y       z     vdW  Elec       q    Type
                         _______ _______ _______ _____ _____    ______ ____

>  <TORSDO>
F 10

>  <SCORE>
-4.563

>  <RMSD_LB>
5.218

>  <RMSD_UB>
9.289

$$$$
1548943
 OpenBabel10162523323D

 24 24  0  0  0  0  0  0  0  0999 V2000
  115.6770  127.8790  152.9970 O   0  0  0  0  0  0  0  0  0  0  0  0
  116.7710  128.4290  152.8780 C   0  0  0  0  0  0  0  0  0  0  0  0
  117.4220  129.0520  153.9130 N   0  0  0  0  0  0  0  0  0  0  0  0
  118.3070  129.4510  153.7530 H   0  0  0  0  0  0  0  0  0  0  0  0
  116.8400  129.1370  155.2360 C   0  0  0  0  0  2  0  0  0  0  0  0
  117.6330  128.3650  156.2630 C   0  0  0  0  0  0  0  0  0  0  0  0
  117.0130  127.8840  157.4350 C   0  0  0  0  0  3  0  0  0  0  0  0
  117.7610  127.2280  158.4150 C   0  0  0  0  0  0  0  0  0  0  0  0
  119.1380  127.0710  158.2190 C   0  0  0  0  0  0  0  0  0  0  0  0
  119.7690  127.5400  157.0750 C   0  0  0  0  0  3  0  0  0  0  0  0
  119.0150  128.1870  156.0970 C   0  0  0  0  0  3  0  0  0  0  0  0
  117.2840  126.7130  159.5930 O   0  0  0  0  0  0  0  0  0  0  0  0
  116.4340  125.5750  159.4940 C   0  0  0  0  0  1  0  0  0  0  0  0
  119.9050  126.4520  159.1710 O   0  0  0  0  0  0  0  0  0  0  0  0
  120.4350  125.7150  158.9390 H   0  0  0  0  0  0  0  0  0  0  0  0
  117.5010  128.4550  151.5520 C   0  0  0  0  0  2  0  0  0  0  0  0
  118.8810  129.1070  151.6300 C   0  0  0  0  0  2  0  0  0  0  0  0
  120.0400  128.1130  151.7720 C   0  0  0  0  0  2  0  0  0  0  0  0
  121.2050  128.4320  150.8350 C   0  0  0  0  0  2  0  0  0  0  0  0
  120.7280  129.0640  149.5620 C   0  0  0  0  0  3  0  0  0  0  0  0
  121.5680  129.5270  148.6220 C   0  0  0  0  0  3  0  0  0  0  0  0
  121.1150  130.1650  147.3380 C   0  0  0  0  0  3  0  0  0  0  0  0
  122.2130  131.0770  146.7940 C   0  0  0  0  0  1  0  0  0  0  0  0
  120.7450  129.0930  146.3150 C   0  0  0  0  0  1  0  0  0  0  0  0
  2  1  2  0  0  0  0
  2  3  1  0  0  0  0
  3  5  1  0  0  0  0
  4  3  1  0  0  0  0
  5  6  1  0  0  0  0
  6  7  1  0  0  0  0
  7  8  2  0  0  0  0
  8 12  1  0  0  0  0
  9  8  1  0  0  0  0
  9 14  1  0  0  0  0
 10  9  2  0  0  0  0
 11  6  2  0  0  0  0
 11 10  1  0  0  0  0
 13 12  1  0  0  0  0
 15 14  1  0  0  0  0
 16 17  1  0  0  0  0
 16  2  1  0  0  0  0
 17 18  1  0  0  0  0
 19 18  1  0  0  0  0
 20 19  1  0  0  0  0
 21 20  2  0  0  0  0
 22 21  1  0  0  0  0
 23 22  1  0  0  0  0
 24 22  1  0  0  0  0
M  END
>  <MODEL>
8

>  <REMARK>
 VINA RESULT:    -4.277     16.200     18.886
 INTER + INTRA:          -7.229
 INTER:                  -6.446
 INTRA:                  -0.783
 UNBOUND:                -0.577
  Name = 1548943
  13 active torsions:
  status: ('A' for Active; 'I' for Inactive)
    1  A    between atoms: C_2  and  C_14
    2  A    between atoms: N_3  and  C_4
    3  A    between atoms: C_4  and  C_5
    4  A    between atoms: C_7  and  O_8
    5  A    between atoms: O_8  and  C_9
    6  A    between atoms: C_10  and  O_11
    7  A    between atoms: C_14  and  C_15
    8  A    between atoms: C_15  and  C_16
    9  A    between atoms: C_16  and  C_17
   10  A    between atoms: C_17  and  C_18
   11  A    between atoms: C_19  and  C_20
   12  A    between atoms: C_20  and  C_21
   13  A    between atoms: C_20  and  C_22
                            x       y       z     vdW  Elec       q    Type
                         _______ _______ _______ _____ _____    ______ ____

>  <TORSDO>
F 10

>  <SCORE>
-4.277

>  <RMSD_LB>
16.200

>  <RMSD_UB>
18.886

$$$$
1548943
 OpenBabel10162523323D

 24 24  0  0  0  0  0  0  0  0999 V2000
  139.8070  136.5680  139.0600 O   0  0  0  0  0  0  0  0  0  0  0  0
  138.9800  136.6350  139.9680 C   0  0  0  0  0  0  0  0  0  0  0  0
  138.8160  137.7420  140.7630 N   0  0  0  0  0  0  0  0  0  0  0  0
  138.1170  137.7350  141.4560 H   0  0  0  0  0  0  0  0  0  0  0  0
  139.6440  138.9190  140.6070 C   0  0  0  0  0  2  0  0  0  0  0  0
  138.9600  140.1720  141.0970 C   0  0  0  0  0  0  0  0  0  0  0  0
  137.6030  140.4140  140.7980 C   0  0  0  0  0  3  0  0  0  0  0  0
  136.9900  141.6040  141.1960 C   0  0  0  0  0  0  0  0  0  0  0  0
  137.7500  142.5560  141.8840 C   0  0  0  0  0  0  0  0  0  0  0  0
  139.0880  142.3410  142.1860 C   0  0  0  0  0  3  0  0  0  0  0  0
  139.6920  141.1470  141.7930 C   0  0  0  0  0  3  0  0  0  0  0  0
  135.6850  141.9610  140.9720 O   0  0  0  0  0  0  0  0  0  0  0  0
  134.7120  141.4020  141.8470 C   0  0  0  0  0  1  0  0  0  0  0  0
  137.1870  143.7440  142.2690 O   0  0  0  0  0  0  0  0  0  0  0  0
  137.6700  144.3400  142.8070 H   0  0  0  0  0  0  0  0  0  0  0  0
  138.0550  135.4780  140.2810 C   0  0  0  0  0  2  0  0  0  0  0  0
  138.5420  134.1420  139.7200 C   0  0  0  0  0  2  0  0  0  0  0  0
  138.4240  132.9680  140.7000 C   0  0  0  0  0  2  0  0  0  0  0  0
  137.1130  132.9900  141.4860 C   0  0  0  0  0  2  0  0  0  0  0  0
  137.3120  132.5320  142.8990 C   0  0  0  0  0  3  0  0  0  0  0  0
  136.7080  133.1200  143.9450 C   0  0  0  0  0  3  0  0  0  0  0  0
  136.8920  132.6800  145.3710 C   0  0  0  0  0  3  0  0  0  0  0  0
  136.0910  133.5860  146.3030 C   0  0  0  0  0  1  0  0  0  0  0  0
  136.4660  131.2220  145.5340 C   0  0  0  0  0  1  0  0  0  0  0  0
  1  2  2  0  0  0  0
  2 16  1  0  0  0  0
  2  3  1  0  0  0  0
  3  4  1  0  0  0  0
  5  3  1  0  0  0  0
  5  6  1  0  0  0  0
  6 11  1  0  0  0  0
  7  6  2  0  0  0  0
  7  8  1  0  0  0  0
  8  9  2  0  0  0  0
  9 10  1  0  0  0  0
  9 14  1  0  0  0  0
 11 10  2  0  0  0  0
 12  8  1  0  0  0  0
 12 13  1  0  0  0  0
 14 15  1  0  0  0  0
 17 16  1  0  0  0  0
 17 18  1  0  0  0  0
 18 19  1  0  0  0  0
 19 20  1  0  0  0  0
 20 21  2  0  0  0  0
 21 22  1  0  0  0  0
 22 24  1  0  0  0  0
 22 23  1  0  0  0  0
M  END
>  <MODEL>
9

>  <REMARK>
 VINA RESULT:    -4.242      5.823      9.342
 INTER + INTRA:          -7.175
 INTER:                  -6.598
 INTRA:                  -0.577
 UNBOUND:                -0.577
  Name = 1548943
  13 active torsions:
  status: ('A' for Active; 'I' for Inactive)
    1  A    between atoms: C_2  and  C_14
    2  A    between atoms: N_3  and  C_4
    3  A    between atoms: C_4  and  C_5
    4  A    between atoms: C_7  and  O_8
    5  A    between atoms: O_8  and  C_9
    6  A    between atoms: C_10  and  O_11
    7  A    between atoms: C_14  and  C_15
    8  A    between atoms: C_15  and  C_16
    9  A    between atoms: C_16  and  C_17
   10  A    between atoms: C_17  and  C_18
   11  A    between atoms: C_19  and  C_20
   12  A    between atoms: C_20  and  C_21
   13  A    between atoms: C_20  and  C_22
                            x       y       z     vdW  Elec       q    Type
                         _______ _______ _______ _____ _____    ______ ____

>  <TORSDO>
F 10

>  <SCORE>
-4.242

>  <RMSD_LB>
5.823

>  <RMSD_UB>
9.342

$$$$
