CHEMBL4228433
 OpenBabel10172500383D

 22 22  0  0  0  0  0  0  0  0999 V2000
  145.5990  140.3140  148.9220 C   0  0  0  0  0  0  0  0  0  0  0  0
  146.6690  139.7900  148.6300 O   0  0  0  0  0  0  0  0  0  0  0  0
  145.4910  141.5740  149.4560 N   0  0  0  0  0  0  0  0  0  0  0  0
  144.5980  141.9240  149.6790 H   0  0  0  0  0  0  0  0  0  0  0  0
  144.2810  139.5880  148.7260 C   0  0  0  0  0  2  0  0  0  0  0  0
  143.2020  139.9990  149.7250 C   0  0  0  0  0  2  0  0  0  0  0  0
  142.9890  138.9480  150.8160 C   0  0  0  0  0  2  0  0  0  0  0  0
  144.1510  138.9380  151.8070 C   0  0  0  0  0  2  0  0  0  0  0  0
  144.7740  137.5450  151.8950 C   0  0  0  0  0  2  0  0  0  0  0  0
  147.0690  138.5530  152.0490 C   0  0  0  0  0  1  0  0  0  0  0  0
  146.1930  137.5380  151.3330 C   0  0  0  0  0  2  0  0  0  0  0  0
  146.6490  142.4030  149.7000 C   0  0  0  0  0  2  0  0  0  0  0  0
  147.1490  142.2390  151.1120 C   0  0  0  0  0  0  0  0  0  0  0  0
  148.5220  142.0570  151.3650 C   0  0  0  0  0  3  0  0  0  0  0  0
  148.9950  141.8830  152.6710 C   0  0  0  0  0  3  0  0  0  0  0  0
  148.0920  141.9090  153.7260 C   0  0  0  0  0  0  0  0  0  0  0  0
  146.7360  142.1090  153.4850 C   0  0  0  0  0  0  0  0  0  0  0  0
  146.2570  142.2760  152.1920 C   0  0  0  0  0  3  0  0  0  0  0  0
  148.4890  141.7420  155.0240 O   0  0  0  0  0  0  0  0  0  0  0  0
  148.1740  141.0120  155.5200 H   0  0  0  0  0  0  0  0  0  0  0  0
  145.8550  142.1390  154.5280 O   0  0  0  0  0  0  0  0  0  0  0  0
  145.9990  141.5980  155.2800 H   0  0  0  0  0  0  0  0  0  0  0  0
  1  3  1  0  0  0  0
  2  1  2  0  0  0  0
  3  4  1  0  0  0  0
  3 12  1  0  0  0  0
  5  1  1  0  0  0  0
  5  6  1  0  0  0  0
  6  7  1  0  0  0  0
  7  8  1  0  0  0  0
  8  9  1  0  0  0  0
 11  9  1  0  0  0  0
 11 10  1  0  0  0  0
 12 13  1  0  0  0  0
 13 14  2  0  0  0  0
 13 18  1  0  0  0  0
 14 15  1  0  0  0  0
 15 16  2  0  0  0  0
 16 19  1  0  0  0  0
 17 16  1  0  0  0  0
 17 21  1  0  0  0  0
 18 17  2  0  0  0  0
 19 20  1  0  0  0  0
 21 22  1  0  0  0  0
M  END
>  <MODEL>
1

>  <REMARK>
 VINA RESULT:    -6.562      0.000      0.000
 INTER + INTRA:         -10.615
 INTER:                  -9.078
 INTRA:                  -1.537
 UNBOUND:                -0.600
  Name = CHEMBL4228433
  11 active torsions:
  status: ('A' for Active; 'I' for Inactive)
    1  A    between atoms: C_1  and  C_2
    2  A    between atoms: C_2  and  C_3
    3  A    between atoms: C_3  and  C_4
    4  A    between atoms: C_4  and  C_5
    5  A    between atoms: C_5  and  C_6
    6  A    between atoms: C_6  and  C_7
    7  A    between atoms: C_7  and  C_8
    8  A    between atoms: N_10  and  C_11
    9  A    between atoms: C_11  and  C_12
   10  A    between atoms: C_15  and  O_16
   11  A    between atoms: C_17  and  O_18
                            x       y       z     vdW  Elec       q    Type
                         _______ _______ _______ _____ _____    ______ ____

>  <TORSDO>
F 10

>  <SCORE>
-6.562

>  <RMSD_LB>
0.000

>  <RMSD_UB>
0.000

$$$$
CHEMBL4228433
 OpenBabel10172500383D

 22 22  0  0  0  0  0  0  0  0999 V2000
  147.2670  139.6340  154.7640 C   0  0  0  0  0  0  0  0  0  0  0  0
  148.4350  139.9540  154.5730 O   0  0  0  0  0  0  0  0  0  0  0  0
  146.2030  140.4700  154.5330 N   0  0  0  0  0  0  0  0  0  0  0  0
  145.2920  140.1490  154.7230 H   0  0  0  0  0  0  0  0  0  0  0  0
  146.8970  138.2620  155.2960 C   0  0  0  0  0  2  0  0  0  0  0  0
  147.3600  137.1130  154.4040 C   0  0  0  0  0  2  0  0  0  0  0  0
  146.3450  136.7820  153.3090 C   0  0  0  0  0  2  0  0  0  0  0  0
  144.9140  136.8960  153.8300 C   0  0  0  0  0  2  0  0  0  0  0  0
  144.0010  137.5130  152.7720 C   0  0  0  0  0  2  0  0  0  0  0  0
  142.7240  138.9570  154.3830 C   0  0  0  0  0  1  0  0  0  0  0  0
  142.6290  137.8440  153.3530 C   0  0  0  0  0  2  0  0  0  0  0  0
  146.3800  141.8090  154.0200 C   0  0  0  0  0  2  0  0  0  0  0  0
  146.3720  141.8210  152.5130 C   0  0  0  0  0  0  0  0  0  0  0  0
  147.4810  142.3110  151.7990 C   0  0  0  0  0  3  0  0  0  0  0  0
  147.4750  142.3460  150.3990 C   0  0  0  0  0  3  0  0  0  0  0  0
  146.3630  141.8740  149.7150 C   0  0  0  0  0  0  0  0  0  0  0  0
  145.2710  141.3680  150.4150 C   0  0  0  0  0  0  0  0  0  0  0  0
  145.2640  141.3360  151.8040 C   0  0  0  0  0  3  0  0  0  0  0  0
  146.2930  141.8840  148.3500 O   0  0  0  0  0  0  0  0  0  0  0  0
  147.0050  141.5480  147.8410 H   0  0  0  0  0  0  0  0  0  0  0  0
  144.1820  140.9000  149.7360 O   0  0  0  0  0  0  0  0  0  0  0  0
  143.3400  140.8950  150.1460 H   0  0  0  0  0  0  0  0  0  0  0  0
  1  5  1  0  0  0  0
  2  1  2  0  0  0  0
  3  4  1  0  0  0  0
  3  1  1  0  0  0  0
  6  5  1  0  0  0  0
  7  8  1  0  0  0  0
  7  6  1  0  0  0  0
  9 11  1  0  0  0  0
  9  8  1  0  0  0  0
 11 10  1  0  0  0  0
 12  3  1  0  0  0  0
 13 12  1  0  0  0  0
 14 13  2  0  0  0  0
 15 14  1  0  0  0  0
 16 15  2  0  0  0  0
 16 17  1  0  0  0  0
 17 18  2  0  0  0  0
 18 13  1  0  0  0  0
 19 16  1  0  0  0  0
 20 19  1  0  0  0  0
 21 22  1  0  0  0  0
 21 17  1  0  0  0  0
M  END
>  <MODEL>
2

>  <REMARK>
 VINA RESULT:    -6.397      2.316      4.685
 INTER + INTRA:         -10.362
 INTER:                  -9.297
 INTRA:                  -1.065
 UNBOUND:                -0.600
  Name = CHEMBL4228433
  11 active torsions:
  status: ('A' for Active; 'I' for Inactive)
    1  A    between atoms: C_1  and  C_2
    2  A    between atoms: C_2  and  C_3
    3  A    between atoms: C_3  and  C_4
    4  A    between atoms: C_4  and  C_5
    5  A    between atoms: C_5  and  C_6
    6  A    between atoms: C_6  and  C_7
    7  A    between atoms: C_7  and  C_8
    8  A    between atoms: N_10  and  C_11
    9  A    between atoms: C_11  and  C_12
   10  A    between atoms: C_15  and  O_16
   11  A    between atoms: C_17  and  O_18
                            x       y       z     vdW  Elec       q    Type
                         _______ _______ _______ _____ _____    ______ ____

>  <TORSDO>
F 10

>  <SCORE>
-6.397

>  <RMSD_LB>
2.316

>  <RMSD_UB>
4.685

$$$$
CHEMBL4228433
 OpenBabel10172500383D

 22 22  0  0  0  0  0  0  0  0999 V2000
  145.6330  140.4970  148.2540 C   0  0  0  0  0  0  0  0  0  0  0  0
  146.4900  140.7400  147.4120 O   0  0  0  0  0  0  0  0  0  0  0  0
  145.4990  141.1990  149.4270 N   0  0  0  0  0  0  0  0  0  0  0  0
  144.7960  140.9380  150.0630 H   0  0  0  0  0  0  0  0  0  0  0  0
  144.6390  139.3650  148.0720 C   0  0  0  0  0  2  0  0  0  0  0  0
  145.2850  137.9810  148.0510 C   0  0  0  0  0  2  0  0  0  0  0  0
  144.5080  136.9640  148.8890 C   0  0  0  0  0  2  0  0  0  0  0  0
  143.9210  137.6130  150.1400 C   0  0  0  0  0  2  0  0  0  0  0  0
  142.6830  136.8530  150.6130 C   0  0  0  0  0  2  0  0  0  0  0  0
  140.6620  137.5840  151.9130 C   0  0  0  0  0  1  0  0  0  0  0  0
  142.1710  137.4040  151.9410 C   0  0  0  0  0  2  0  0  0  0  0  0
  146.3610  142.3120  149.7530 C   0  0  0  0  0  2  0  0  0  0  0  0
  146.9290  142.1740  151.1420 C   0  0  0  0  0  0  0  0  0  0  0  0
  148.3020  141.9290  151.3300 C   0  0  0  0  0  3  0  0  0  0  0  0
  148.8350  141.7790  152.6160 C   0  0  0  0  0  3  0  0  0  0  0  0
  147.9930  141.8910  153.7140 C   0  0  0  0  0  0  0  0  0  0  0  0
  146.6380  142.1540  153.5370 C   0  0  0  0  0  0  0  0  0  0  0  0
  146.0990  142.2980  152.2650 C   0  0  0  0  0  3  0  0  0  0  0  0
  148.4510  141.7510  154.9950 O   0  0  0  0  0  0  0  0  0  0  0  0
  147.9690  142.1200  155.7090 H   0  0  0  0  0  0  0  0  0  0  0  0
  145.8170  142.2680  154.6230 O   0  0  0  0  0  0  0  0  0  0  0  0
  146.1600  142.1380  155.4850 H   0  0  0  0  0  0  0  0  0  0  0  0
  1  3  1  0  0  0  0
  2  1  2  0  0  0  0
  3 12  1  0  0  0  0
  3  4  1  0  0  0  0
  5  1  1  0  0  0  0
  6  5  1  0  0  0  0
  6  7  1  0  0  0  0
  7  8  1  0  0  0  0
  8  9  1  0  0  0  0
  9 11  1  0  0  0  0
 10 11  1  0  0  0  0
 12 13  1  0  0  0  0
 13 14  2  0  0  0  0
 13 18  1  0  0  0  0
 14 15  1  0  0  0  0
 15 16  2  0  0  0  0
 16 19  1  0  0  0  0
 17 16  1  0  0  0  0
 17 21  1  0  0  0  0
 18 17  2  0  0  0  0
 19 20  1  0  0  0  0
 21 22  1  0  0  0  0
M  END
>  <MODEL>
3

>  <REMARK>
 VINA RESULT:    -6.173      1.464      2.234
 INTER + INTRA:         -10.022
 INTER:                  -9.445
 INTRA:                  -0.576
 UNBOUND:                -0.600
  Name = CHEMBL4228433
  11 active torsions:
  status: ('A' for Active; 'I' for Inactive)
    1  A    between atoms: C_1  and  C_2
    2  A    between atoms: C_2  and  C_3
    3  A    between atoms: C_3  and  C_4
    4  A    between atoms: C_4  and  C_5
    5  A    between atoms: C_5  and  C_6
    6  A    between atoms: C_6  and  C_7
    7  A    between atoms: C_7  and  C_8
    8  A    between atoms: N_10  and  C_11
    9  A    between atoms: C_11  and  C_12
   10  A    between atoms: C_15  and  O_16
   11  A    between atoms: C_17  and  O_18
                            x       y       z     vdW  Elec       q    Type
                         _______ _______ _______ _____ _____    ______ ____

>  <TORSDO>
F 10

>  <SCORE>
-6.173

>  <RMSD_LB>
1.464

>  <RMSD_UB>
2.234

$$$$
CHEMBL4228433
 OpenBabel10172500383D

 22 22  0  0  0  0  0  0  0  0999 V2000
  146.1860  141.1310  147.5590 C   0  0  0  0  0  0  0  0  0  0  0  0
  146.6990  141.9310  146.7840 O   0  0  0  0  0  0  0  0  0  0  0  0
  146.0700  141.3500  148.9090 N   0  0  0  0  0  0  0  0  0  0  0  0
  145.6580  140.6560  149.4720 H   0  0  0  0  0  0  0  0  0  0  0  0
  145.6400  139.7990  147.0780 C   0  0  0  0  0  2  0  0  0  0  0  0
  146.1560  138.6030  147.8750 C   0  0  0  0  0  2  0  0  0  0  0  0
  146.7300  137.5090  146.9740 C   0  0  0  0  0  2  0  0  0  0  0  0
  148.1390  137.1160  147.4120 C   0  0  0  0  0  2  0  0  0  0  0  0
  149.1740  137.5940  146.3950 C   0  0  0  0  0  2  0  0  0  0  0  0
  149.3500  139.4450  144.7060 C   0  0  0  0  0  1  0  0  0  0  0  0
  148.5050  138.2880  145.2110 C   0  0  0  0  0  2  0  0  0  0  0  0
  146.5330  142.5700  149.5290 C   0  0  0  0  0  2  0  0  0  0  0  0
  146.9190  142.3400  150.9670 C   0  0  0  0  0  0  0  0  0  0  0  0
  145.9350  142.3170  151.9730 C   0  0  0  0  0  3  0  0  0  0  0  0
  146.2860  142.1240  153.3150 C   0  0  0  0  0  3  0  0  0  0  0  0
  147.6220  141.9380  153.6450 C   0  0  0  0  0  0  0  0  0  0  0  0
  148.5980  141.9380  152.6520 C   0  0  0  0  0  0  0  0  0  0  0  0
  148.2600  142.1360  151.3190 C   0  0  0  0  0  3  0  0  0  0  0  0
  148.0300  141.7490  154.9370 O   0  0  0  0  0  0  0  0  0  0  0  0
  148.1890  140.8820  155.2560 H   0  0  0  0  0  0  0  0  0  0  0  0
  149.9090  141.7490  152.9840 O   0  0  0  0  0  0  0  0  0  0  0  0
  150.4640  142.4880  153.1410 H   0  0  0  0  0  0  0  0  0  0  0  0
  1  3  1  0  0  0  0
  2  1  2  0  0  0  0
  3  4  1  0  0  0  0
  3 12  1  0  0  0  0
  5  1  1  0  0  0  0
  5  6  1  0  0  0  0
  7  8  1  0  0  0  0
  7  6  1  0  0  0  0
  9  8  1  0  0  0  0
 10 11  1  0  0  0  0
 11  9  1  0  0  0  0
 12 13  1  0  0  0  0
 13 18  2  0  0  0  0
 13 14  1  0  0  0  0
 14 15  2  0  0  0  0
 15 16  1  0  0  0  0
 16 19  1  0  0  0  0
 17 21  1  0  0  0  0
 17 16  2  0  0  0  0
 18 17  1  0  0  0  0
 19 20  1  0  0  0  0
 21 22  1  0  0  0  0
M  END
>  <MODEL>
4

>  <REMARK>
 VINA RESULT:    -6.158      2.756      3.947
 INTER + INTRA:          -9.998
 INTER:                  -9.335
 INTRA:                  -0.663
 UNBOUND:                -0.600
  Name = CHEMBL4228433
  11 active torsions:
  status: ('A' for Active; 'I' for Inactive)
    1  A    between atoms: C_1  and  C_2
    2  A    between atoms: C_2  and  C_3
    3  A    between atoms: C_3  and  C_4
    4  A    between atoms: C_4  and  C_5
    5  A    between atoms: C_5  and  C_6
    6  A    between atoms: C_6  and  C_7
    7  A    between atoms: C_7  and  C_8
    8  A    between atoms: N_10  and  C_11
    9  A    between atoms: C_11  and  C_12
   10  A    between atoms: C_15  and  O_16
   11  A    between atoms: C_17  and  O_18
                            x       y       z     vdW  Elec       q    Type
                         _______ _______ _______ _____ _____    ______ ____

>  <TORSDO>
F 10

>  <SCORE>
-6.158

>  <RMSD_LB>
2.756

>  <RMSD_UB>
3.947

$$$$
CHEMBL4228433
 OpenBabel10172500383D

 22 22  0  0  0  0  0  0  0  0999 V2000
  146.3290  141.0890  147.4340 C   0  0  0  0  0  0  0  0  0  0  0  0
  146.6950  141.9770  146.6710 O   0  0  0  0  0  0  0  0  0  0  0  0
  146.2290  141.2510  148.7940 N   0  0  0  0  0  0  0  0  0  0  0  0
  145.9420  140.4890  149.3460 H   0  0  0  0  0  0  0  0  0  0  0  0
  145.9670  139.7060  146.9270 C   0  0  0  0  0  2  0  0  0  0  0  0
  145.1100  138.9020  147.9020 C   0  0  0  0  0  2  0  0  0  0  0  0
  145.9540  138.0350  148.8380 C   0  0  0  0  0  2  0  0  0  0  0  0
  145.3760  138.0230  150.2520 C   0  0  0  0  0  2  0  0  0  0  0  0
  146.3620  138.6390  151.2440 C   0  0  0  0  0  2  0  0  0  0  0  0
  148.2700  137.4250  152.3360 C   0  0  0  0  0  1  0  0  0  0  0  0
  146.7650  137.6320  152.3180 C   0  0  0  0  0  2  0  0  0  0  0  0
  146.5320  142.5080  149.4390 C   0  0  0  0  0  2  0  0  0  0  0  0
  146.8870  142.3060  150.8890 C   0  0  0  0  0  0  0  0  0  0  0  0
  145.8840  142.3110  151.8760 C   0  0  0  0  0  3  0  0  0  0  0  0
  146.2070  142.1450  153.2290 C   0  0  0  0  0  3  0  0  0  0  0  0
  147.5350  141.9570  153.5890 C   0  0  0  0  0  0  0  0  0  0  0  0
  148.5300  141.9290  152.6160 C   0  0  0  0  0  0  0  0  0  0  0  0
  148.2200  142.1000  151.2720 C   0  0  0  0  0  3  0  0  0  0  0  0
  147.9160  141.7920  154.8920 O   0  0  0  0  0  0  0  0  0  0  0  0
  147.5730  142.3580  155.5560 H   0  0  0  0  0  0  0  0  0  0  0  0
  149.8330  141.7380  152.9770 O   0  0  0  0  0  0  0  0  0  0  0  0
  150.0660  141.6880  153.8840 H   0  0  0  0  0  0  0  0  0  0  0  0
  1  3  1  0  0  0  0
  2  1  2  0  0  0  0
  3  4  1  0  0  0  0
  3 12  1  0  0  0  0
  5  1  1  0  0  0  0
  5  6  1  0  0  0  0
  6  7  1  0  0  0  0
  7  8  1  0  0  0  0
  8  9  1  0  0  0  0
  9 11  1  0  0  0  0
 11 10  1  0  0  0  0
 12 13  1  0  0  0  0
 13 18  2  0  0  0  0
 13 14  1  0  0  0  0
 14 15  2  0  0  0  0
 15 16  1  0  0  0  0
 16 19  1  0  0  0  0
 17 21  1  0  0  0  0
 17 16  2  0  0  0  0
 18 17  1  0  0  0  0
 19 20  1  0  0  0  0
 21 22  1  0  0  0  0
M  END
>  <MODEL>
5

>  <REMARK>
 VINA RESULT:    -6.141      1.564      2.263
 INTER + INTRA:          -9.972
 INTER:                  -9.078
 INTRA:                  -0.894
 UNBOUND:                -0.600
  Name = CHEMBL4228433
  11 active torsions:
  status: ('A' for Active; 'I' for Inactive)
    1  A    between atoms: C_1  and  C_2
    2  A    between atoms: C_2  and  C_3
    3  A    between atoms: C_3  and  C_4
    4  A    between atoms: C_4  and  C_5
    5  A    between atoms: C_5  and  C_6
    6  A    between atoms: C_6  and  C_7
    7  A    between atoms: C_7  and  C_8
    8  A    between atoms: N_10  and  C_11
    9  A    between atoms: C_11  and  C_12
   10  A    between atoms: C_15  and  O_16
   11  A    between atoms: C_17  and  O_18
                            x       y       z     vdW  Elec       q    Type
                         _______ _______ _______ _____ _____    ______ ____

>  <TORSDO>
F 10

>  <SCORE>
-6.141

>  <RMSD_LB>
1.564

>  <RMSD_UB>
2.263

$$$$
CHEMBL4228433
 OpenBabel10172500383D

 22 22  0  0  0  0  0  0  0  0999 V2000
  144.7520  140.1260  149.6840 C   0  0  0  0  0  0  0  0  0  0  0  0
  145.6660  139.5070  149.1490 O   0  0  0  0  0  0  0  0  0  0  0  0
  144.8910  141.3920  150.1970 N   0  0  0  0  0  0  0  0  0  0  0  0
  144.1160  141.8220  150.6260 H   0  0  0  0  0  0  0  0  0  0  0  0
  143.3700  139.5220  149.8410 C   0  0  0  0  0  2  0  0  0  0  0  0
  143.3350  138.3030  150.7610 C   0  0  0  0  0  2  0  0  0  0  0  0
  143.0000  137.0150  150.0070 C   0  0  0  0  0  2  0  0  0  0  0  0
  144.2530  136.1770  149.7630 C   0  0  0  0  0  2  0  0  0  0  0  0
  145.2940  136.4320  150.8510 C   0  0  0  0  0  2  0  0  0  0  0  0
  147.8020  136.4190  150.7100 C   0  0  0  0  0  1  0  0  0  0  0  0
  146.5400  135.5770  150.6340 C   0  0  0  0  0  2  0  0  0  0  0  0
  146.1400  142.1140  150.1250 C   0  0  0  0  0  2  0  0  0  0  0  0
  146.8990  142.0220  151.4230 C   0  0  0  0  0  0  0  0  0  0  0  0
  146.2180  141.7850  152.6320 C   0  0  0  0  0  3  0  0  0  0  0  0
  146.9130  141.7190  153.8460 C   0  0  0  0  0  3  0  0  0  0  0  0
  148.2930  141.8730  153.8460 C   0  0  0  0  0  0  0  0  0  0  0  0
  148.9750  142.0870  152.6510 C   0  0  0  0  0  0  0  0  0  0  0  0
  148.2940  142.1620  151.4430 C   0  0  0  0  0  3  0  0  0  0  0  0
  149.0280  141.8230  154.9980 O   0  0  0  0  0  0  0  0  0  0  0  0
  149.2440  142.6150  155.4510 H   0  0  0  0  0  0  0  0  0  0  0  0
  150.3330  142.2330  152.6580 O   0  0  0  0  0  0  0  0  0  0  0  0
  150.8110  142.2180  151.8520 H   0  0  0  0  0  0  0  0  0  0  0  0
  1  5  1  0  0  0  0
  1  3  1  0  0  0  0
  2  1  2  0  0  0  0
  3  4  1  0  0  0  0
  5  6  1  0  0  0  0
  7  6  1  0  0  0  0
  8  7  1  0  0  0  0
  8  9  1  0  0  0  0
 11 10  1  0  0  0  0
 11  9  1  0  0  0  0
 12  3  1  0  0  0  0
 12 13  1  0  0  0  0
 13 18  2  0  0  0  0
 13 14  1  0  0  0  0
 14 15  2  0  0  0  0
 15 16  1  0  0  0  0
 16 19  1  0  0  0  0
 17 21  1  0  0  0  0
 17 16  2  0  0  0  0
 18 17  1  0  0  0  0
 19 20  1  0  0  0  0
 22 21  1  0  0  0  0
M  END
>  <MODEL>
6

>  <REMARK>
 VINA RESULT:    -5.993      1.408      2.147
 INTER + INTRA:          -9.746
 INTER:                  -8.913
 INTRA:                  -0.833
 UNBOUND:                -0.600
  Name = CHEMBL4228433
  11 active torsions:
  status: ('A' for Active; 'I' for Inactive)
    1  A    between atoms: C_1  and  C_2
    2  A    between atoms: C_2  and  C_3
    3  A    between atoms: C_3  and  C_4
    4  A    between atoms: C_4  and  C_5
    5  A    between atoms: C_5  and  C_6
    6  A    between atoms: C_6  and  C_7
    7  A    between atoms: C_7  and  C_8
    8  A    between atoms: N_10  and  C_11
    9  A    between atoms: C_11  and  C_12
   10  A    between atoms: C_15  and  O_16
   11  A    between atoms: C_17  and  O_18
                            x       y       z     vdW  Elec       q    Type
                         _______ _______ _______ _____ _____    ______ ____

>  <TORSDO>
F 10

>  <SCORE>
-5.993

>  <RMSD_LB>
1.408

>  <RMSD_UB>
2.147

$$$$
CHEMBL4228433
 OpenBabel10172500383D

 22 22  0  0  0  0  0  0  0  0999 V2000
  145.4150  139.8130  148.6810 C   0  0  0  0  0  0  0  0  0  0  0  0
  144.2560  140.2090  148.7410 O   0  0  0  0  0  0  0  0  0  0  0  0
  146.4930  140.5470  149.1120 N   0  0  0  0  0  0  0  0  0  0  0  0
  147.3960  140.1690  149.0180 H   0  0  0  0  0  0  0  0  0  0  0  0
  145.7600  138.4560  148.0960 C   0  0  0  0  0  2  0  0  0  0  0  0
  145.6710  137.3140  149.1050 C   0  0  0  0  0  2  0  0  0  0  0  0
  146.9920  137.0820  149.8380 C   0  0  0  0  0  2  0  0  0  0  0  0
  146.7590  136.4720  151.2190 C   0  0  0  0  0  2  0  0  0  0  0  0
  147.3790  137.3460  152.3070 C   0  0  0  0  0  2  0  0  0  0  0  0
  146.7380  138.4750  154.4570 C   0  0  0  0  0  1  0  0  0  0  0  0
  146.6180  137.2110  153.6230 C   0  0  0  0  0  2  0  0  0  0  0  0
  146.3390  141.8570  149.7000 C   0  0  0  0  0  2  0  0  0  0  0  0
  146.8780  141.8910  151.1060 C   0  0  0  0  0  0  0  0  0  0  0  0
  148.2560  141.7340  151.3460 C   0  0  0  0  0  3  0  0  0  0  0  0
  148.7640  141.7430  152.6510 C   0  0  0  0  0  3  0  0  0  0  0  0
  147.8910  141.9270  153.7150 C   0  0  0  0  0  0  0  0  0  0  0  0
  146.5300  142.1050  153.4840 C   0  0  0  0  0  0  0  0  0  0  0  0
  146.0160  142.0900  152.1940 C   0  0  0  0  0  3  0  0  0  0  0  0
  148.3230  141.9430  155.0120 O   0  0  0  0  0  0  0  0  0  0  0  0
  147.8950  141.4120  155.6550 H   0  0  0  0  0  0  0  0  0  0  0  0
  145.6780  142.2910  154.5360 O   0  0  0  0  0  0  0  0  0  0  0  0
  145.7690  141.7720  155.3110 H   0  0  0  0  0  0  0  0  0  0  0  0
  1  2  2  0  0  0  0
  1  3  1  0  0  0  0
  3 12  1  0  0  0  0
  4  3  1  0  0  0  0
  5  1  1  0  0  0  0
  5  6  1  0  0  0  0
  6  7  1  0  0  0  0
  7  8  1  0  0  0  0
  8  9  1  0  0  0  0
  9 11  1  0  0  0  0
 11 10  1  0  0  0  0
 12 13  1  0  0  0  0
 13 14  2  0  0  0  0
 13 18  1  0  0  0  0
 14 15  1  0  0  0  0
 15 16  2  0  0  0  0
 16 19  1  0  0  0  0
 17 16  1  0  0  0  0
 17 21  1  0  0  0  0
 18 17  2  0  0  0  0
 19 20  1  0  0  0  0
 21 22  1  0  0  0  0
M  END
>  <MODEL>
7

>  <REMARK>
 VINA RESULT:    -5.894      1.606      2.044
 INTER + INTRA:          -9.595
 INTER:                  -8.704
 INTRA:                  -0.891
 UNBOUND:                -0.600
  Name = CHEMBL4228433
  11 active torsions:
  status: ('A' for Active; 'I' for Inactive)
    1  A    between atoms: C_1  and  C_2
    2  A    between atoms: C_2  and  C_3
    3  A    between atoms: C_3  and  C_4
    4  A    between atoms: C_4  and  C_5
    5  A    between atoms: C_5  and  C_6
    6  A    between atoms: C_6  and  C_7
    7  A    between atoms: C_7  and  C_8
    8  A    between atoms: N_10  and  C_11
    9  A    between atoms: C_11  and  C_12
   10  A    between atoms: C_15  and  O_16
   11  A    between atoms: C_17  and  O_18
                            x       y       z     vdW  Elec       q    Type
                         _______ _______ _______ _____ _____    ______ ____

>  <TORSDO>
F 10

>  <SCORE>
-5.894

>  <RMSD_LB>
1.606

>  <RMSD_UB>
2.044

$$$$
CHEMBL4228433
 OpenBabel10172500383D

 22 22  0  0  0  0  0  0  0  0999 V2000
  145.0130  138.3590  150.7590 C   0  0  0  0  0  0  0  0  0  0  0  0
  145.6880  137.8270  151.6340 O   0  0  0  0  0  0  0  0  0  0  0  0
  143.7110  138.0160  150.4920 N   0  0  0  0  0  0  0  0  0  0  0  0
  143.2350  138.4760  149.7630 H   0  0  0  0  0  0  0  0  0  0  0  0
  145.5810  139.4500  149.8710 C   0  0  0  0  0  2  0  0  0  0  0  0
  144.9000  140.8040  150.0550 C   0  0  0  0  0  2  0  0  0  0  0  0
  144.8470  141.2340  151.5220 C   0  0  0  0  0  2  0  0  0  0  0  0
  145.6440  142.5160  151.7510 C   0  0  0  0  0  2  0  0  0  0  0  0
  147.0860  142.1940  152.1390 C   0  0  0  0  0  2  0  0  0  0  0  0
  148.4710  141.8400  154.2040 C   0  0  0  0  0  1  0  0  0  0  0  0
  147.1530  141.5340  153.5140 C   0  0  0  0  0  2  0  0  0  0  0  0
  143.0170  136.9990  151.2480 C   0  0  0  0  0  2  0  0  0  0  0  0
  142.0260  137.6100  152.2040 C   0  0  0  0  0  0  0  0  0  0  0  0
  142.4360  138.0340  153.4820 C   0  0  0  0  0  3  0  0  0  0  0  0
  141.5180  138.5850  154.3850 C   0  0  0  0  0  3  0  0  0  0  0  0
  140.1920  138.7260  153.9990 C   0  0  0  0  0  0  0  0  0  0  0  0
  139.7830  138.3280  152.7290 C   0  0  0  0  0  0  0  0  0  0  0  0
  140.6850  137.7740  151.8290 C   0  0  0  0  0  3  0  0  0  0  0  0
  139.2460  139.2520  154.8350 O   0  0  0  0  0  0  0  0  0  0  0  0
  139.1100  140.1790  154.8640 H   0  0  0  0  0  0  0  0  0  0  0  0
  138.4780  138.4750  152.3550 O   0  0  0  0  0  0  0  0  0  0  0  0
  137.8160  137.9330  152.7390 H   0  0  0  0  0  0  0  0  0  0  0  0
  1  2  2  0  0  0  0
  3  1  1  0  0  0  0
  3 12  1  0  0  0  0
  4  3  1  0  0  0  0
  5  6  1  0  0  0  0
  5  1  1  0  0  0  0
  6  7  1  0  0  0  0
  7  8  1  0  0  0  0
  8  9  1  0  0  0  0
  9 11  1  0  0  0  0
 11 10  1  0  0  0  0
 12 13  1  0  0  0  0
 13 14  1  0  0  0  0
 14 15  2  0  0  0  0
 16 15  1  0  0  0  0
 16 19  1  0  0  0  0
 17 16  2  0  0  0  0
 18 13  2  0  0  0  0
 18 17  1  0  0  0  0
 19 20  1  0  0  0  0
 21 17  1  0  0  0  0
 21 22  1  0  0  0  0
M  END
>  <MODEL>
8

>  <REMARK>
 VINA RESULT:    -5.817      3.521      6.103
 INTER + INTRA:          -9.478
 INTER:                  -8.668
 INTRA:                  -0.810
 UNBOUND:                -0.600
  Name = CHEMBL4228433
  11 active torsions:
  status: ('A' for Active; 'I' for Inactive)
    1  A    between atoms: C_1  and  C_2
    2  A    between atoms: C_2  and  C_3
    3  A    between atoms: C_3  and  C_4
    4  A    between atoms: C_4  and  C_5
    5  A    between atoms: C_5  and  C_6
    6  A    between atoms: C_6  and  C_7
    7  A    between atoms: C_7  and  C_8
    8  A    between atoms: N_10  and  C_11
    9  A    between atoms: C_11  and  C_12
   10  A    between atoms: C_15  and  O_16
   11  A    between atoms: C_17  and  O_18
                            x       y       z     vdW  Elec       q    Type
                         _______ _______ _______ _____ _____    ______ ____

>  <TORSDO>
F 10

>  <SCORE>
-5.817

>  <RMSD_LB>
3.521

>  <RMSD_UB>
6.103

$$$$
CHEMBL4228433
 OpenBabel10172500383D

 22 22  0  0  0  0  0  0  0  0999 V2000
  134.8260  134.1870  145.8250 C   0  0  0  0  0  0  0  0  0  0  0  0
  135.8760  134.6980  146.2000 O   0  0  0  0  0  0  0  0  0  0  0  0
  133.5860  134.6210  146.2250 N   0  0  0  0  0  0  0  0  0  0  0  0
  132.7870  134.1520  145.8950 H   0  0  0  0  0  0  0  0  0  0  0  0
  134.8140  132.9980  144.8830 C   0  0  0  0  0  2  0  0  0  0  0  0
  136.1380  132.2400  144.8360 C   0  0  0  0  0  2  0  0  0  0  0  0
  136.6390  132.0350  143.4050 C   0  0  0  0  0  2  0  0  0  0  0  0
  137.6680  133.0960  143.0230 C   0  0  0  0  0  2  0  0  0  0  0  0
  137.0910  134.0610  141.9890 C   0  0  0  0  0  2  0  0  0  0  0  0
  138.6010  132.8780  140.3670 C   0  0  0  0  0  1  0  0  0  0  0  0
  137.2330  133.5040  140.5750 C   0  0  0  0  0  2  0  0  0  0  0  0
  133.4200  135.7450  147.1170 C   0  0  0  0  0  2  0  0  0  0  0  0
  133.3700  135.2990  148.5550 C   0  0  0  0  0  0  0  0  0  0  0  0
  132.9450  133.9980  148.8840 C   0  0  0  0  0  3  0  0  0  0  0  0
  132.8750  133.5810  150.2180 C   0  0  0  0  0  3  0  0  0  0  0  0
  133.2490  134.4640  151.2230 C   0  0  0  0  0  0  0  0  0  0  0  0
  133.6910  135.7450  150.9050 C   0  0  0  0  0  0  0  0  0  0  0  0
  133.7560  136.1700  149.5840 C   0  0  0  0  0  3  0  0  0  0  0  0
  133.2000  134.1190  152.5450 O   0  0  0  0  0  0  0  0  0  0  0  0
  132.4170  133.7510  152.9060 H   0  0  0  0  0  0  0  0  0  0  0  0
  134.0610  136.6050  151.8980 O   0  0  0  0  0  0  0  0  0  0  0  0
  133.4210  136.9280  152.5020 H   0  0  0  0  0  0  0  0  0  0  0  0
  1  2  2  0  0  0  0
  1  3  1  0  0  0  0
  3 12  1  0  0  0  0
  4  3  1  0  0  0  0
  5  1  1  0  0  0  0
  6  5  1  0  0  0  0
  7  6  1  0  0  0  0
  8  7  1  0  0  0  0
  9  8  1  0  0  0  0
 10 11  1  0  0  0  0
 11  9  1  0  0  0  0
 12 13  1  0  0  0  0
 13 14  2  0  0  0  0
 13 18  1  0  0  0  0
 14 15  1  0  0  0  0
 15 16  2  0  0  0  0
 16 19  1  0  0  0  0
 17 16  1  0  0  0  0
 17 21  1  0  0  0  0
 18 17  2  0  0  0  0
 19 20  1  0  0  0  0
 21 22  1  0  0  0  0
M  END
>  <MODEL>
9

>  <REMARK>
 VINA RESULT:    -5.684     13.488     14.520
 INTER + INTRA:          -9.274
 INTER:                  -8.674
 INTRA:                  -0.600
 UNBOUND:                -0.600
  Name = CHEMBL4228433
  11 active torsions:
  status: ('A' for Active; 'I' for Inactive)
    1  A    between atoms: C_1  and  C_2
    2  A    between atoms: C_2  and  C_3
    3  A    between atoms: C_3  and  C_4
    4  A    between atoms: C_4  and  C_5
    5  A    between atoms: C_5  and  C_6
    6  A    between atoms: C_6  and  C_7
    7  A    between atoms: C_7  and  C_8
    8  A    between atoms: N_10  and  C_11
    9  A    between atoms: C_11  and  C_12
   10  A    between atoms: C_15  and  O_16
   11  A    between atoms: C_17  and  O_18
                            x       y       z     vdW  Elec       q    Type
                         _______ _______ _______ _____ _____    ______ ____

>  <TORSDO>
F 10

>  <SCORE>
-5.684

>  <RMSD_LB>
13.488

>  <RMSD_UB>
14.520

$$$$
