CHEMBL421008
 OpenBabel10172500413D

 28 28  0  0  0  0  0  0  0  0999 V2000
  135.8940  135.6050  153.7930 C   0  0  0  0  0  0  0  0  0  0  0  0
  134.8490  134.7320  154.1090 C   0  0  0  0  0  3  0  0  0  0  0  0
  134.2180  133.9860  153.1090 C   0  0  0  0  0  3  0  0  0  0  0  0
  134.5980  134.1080  151.7650 C   0  0  0  0  0  0  0  0  0  0  0  0
  135.6150  135.0210  151.4340 C   0  0  0  0  0  0  0  0  0  0  0  0
  136.2680  135.7390  152.4500 C   0  0  0  0  0  3  0  0  0  0  0  0
  136.1150  135.2820  150.1820 O   0  0  0  0  0  0  0  0  0  0  0  0
  136.2780  136.6530  149.8370 C   0  0  0  0  0  1  0  0  0  0  0  0
  136.5850  136.3890  154.8760 C   0  0  0  0  0  2  0  0  0  0  0  0
  137.8700  138.4880  154.7290 C   0  0  0  0  0  0  0  0  0  0  0  0
  137.0980  139.1090  155.4520 O   0  0  0  0  0  0  0  0  0  0  0  0
  137.6840  137.1730  154.3720 N   0  0  0  0  0  0  0  0  0  0  0  0
  138.3230  136.7540  153.7510 H   0  0  0  0  0  0  0  0  0  0  0  0
  139.1210  139.1040  154.1230 C   0  0  0  0  0  2  0  0  0  0  0  0
  140.2130  138.0540  153.9460 C   0  0  0  0  0  2  0  0  0  0  0  0
  140.8380  138.1000  152.5510 C   0  0  0  0  0  2  0  0  0  0  0  0
  139.8300  137.6180  151.5070 C   0  0  0  0  0  2  0  0  0  0  0  0
  139.9450  138.4010  150.2000 C   0  0  0  0  0  2  0  0  0  0  0  0
  140.2900  139.8660  150.4760 C   0  0  0  0  0  2  0  0  0  0  0  0
  138.0710  140.0310  149.3040 C   0  0  0  0  0  1  0  0  0  0  0  0
  139.1660  140.7980  150.0270 C   0  0  0  0  0  2  0  0  0  0  0  0
  134.0480  133.3600  150.7570 O   0  0  0  0  0  0  0  0  0  0  0  0
  132.7480  133.7260  150.2930 C   0  0  0  0  0  2  0  0  0  0  0  0
  132.8310  134.0110  148.7900 C   0  0  0  0  0  2  0  0  0  0  0  0
  133.2420  135.3870  148.5150 N   0  0  0  0  0  4  0  0  0  0  0  0
  133.9550  135.3900  147.7860 H   0  0  0  0  0  0  0  0  0  0  0  0
  133.6220  135.8040  149.3640 H   0  0  0  0  0  0  0  0  0  0  0  0
  132.4340  135.9260  148.2030 H   0  0  0  0  0  0  0  0  0  0  0  0
  1  2  1  0  0  0  0
  1  9  1  0  0  0  0
  3  2  2  0  0  0  0
  4  3  1  0  0  0  0
  5  4  2  0  0  0  0
  5  6  1  0  0  0  0
  6  1  2  0  0  0  0
  7  5  1  0  0  0  0
  8  7  1  0  0  0  0
 10 11  2  0  0  0  0
 12 10  1  0  0  0  0
 12  9  1  0  0  0  0
 13 12  1  0  0  0  0
 14 10  1  0  0  0  0
 15 14  1  0  0  0  0
 16 15  1  0  0  0  0
 17 16  1  0  0  0  0
 18 19  1  0  0  0  0
 18 17  1  0  0  0  0
 20 21  1  0  0  0  0
 21 19  1  0  0  0  0
 22  4  1  0  0  0  0
 23 22  1  0  0  0  0
 24 23  1  0  0  0  0
 25 24  1  0  0  0  0
 25 27  1  0  0  0  0
 26 25  1  0  0  0  0
 28 25  1  0  0  0  0
M  END
>  <MODEL>
1

>  <REMARK>
 VINA RESULT:    -5.663      0.000      0.000
 INTER + INTRA:         -12.064
 INTER:                 -10.348
 INTRA:                  -1.716
 UNBOUND:                -1.932
  Name = CHEMBL421008
  16 active torsions:
  status: ('A' for Active; 'I' for Inactive)
    1  A    between atoms: C_1  and  C_2
    2  A    between atoms: C_2  and  C_3
    3  A    between atoms: C_3  and  C_4
    4  A    between atoms: C_4  and  C_5
    5  A    between atoms: C_5  and  C_6
    6  A    between atoms: C_6  and  C_7
    7  A    between atoms: C_7  and  C_8
    8  A    between atoms: C_8  and  C_9
    9  A    between atoms: N_11  and  C_12
   10  A    between atoms: C_12  and  C_13
   11  A    between atoms: C_16  and  O_17
   12  A    between atoms: O_17  and  C_18
   13  A    between atoms: C_18  and  C_19
   14  A    between atoms: C_19  and  N_20
   15  A    between atoms: C_21  and  O_22
   16  A    between atoms: O_22  and  C_23
                            x       y       z     vdW  Elec       q    Type
                         _______ _______ _______ _____ _____    ______ ____

>  <TORSDO>
F 14

>  <SCORE>
-5.663

>  <RMSD_LB>
0.000

>  <RMSD_UB>
0.000

$$$$
CHEMBL421008
 OpenBabel10172500413D

 28 28  0  0  0  0  0  0  0  0999 V2000
  141.4600  138.4550  153.6680 C   0  0  0  0  0  0  0  0  0  0  0  0
  140.8040  138.0210  152.5140 C   0  0  0  0  0  3  0  0  0  0  0  0
  139.4310  137.7530  152.5340 C   0  0  0  0  0  3  0  0  0  0  0  0
  138.6830  137.8880  153.7120 C   0  0  0  0  0  0  0  0  0  0  0  0
  139.3470  138.2770  154.8890 C   0  0  0  0  0  0  0  0  0  0  0  0
  140.7190  138.5800  154.8500 C   0  0  0  0  0  3  0  0  0  0  0  0
  138.7900  138.4560  156.1310 O   0  0  0  0  0  0  0  0  0  0  0  0
  139.0840  137.4630  157.1070 C   0  0  0  0  0  1  0  0  0  0  0  0
  142.9330  138.7640  153.6360 C   0  0  0  0  0  2  0  0  0  0  0  0
  144.4420  139.8250  152.0010 C   0  0  0  0  0  0  0  0  0  0  0  0
  145.3330  138.9970  152.1590 O   0  0  0  0  0  0  0  0  0  0  0  0
  143.2560  139.8080  152.6970 N   0  0  0  0  0  0  0  0  0  0  0  0
  142.6070  140.5330  152.5480 H   0  0  0  0  0  0  0  0  0  0  0  0
  144.5500  140.9860  151.0260 C   0  0  0  0  0  2  0  0  0  0  0  0
  145.1760  140.5350  149.7100 C   0  0  0  0  0  2  0  0  0  0  0  0
  146.2640  141.4950  149.2290 C   0  0  0  0  0  2  0  0  0  0  0  0
  146.5560  142.5420  150.3050 C   0  0  0  0  0  2  0  0  0  0  0  0
  148.0070  142.4870  150.7770 C   0  0  0  0  0  2  0  0  0  0  0  0
  148.2200  141.3140  151.7350 C   0  0  0  0  0  2  0  0  0  0  0  0
  147.0910  141.9390  153.8940 C   0  0  0  0  0  1  0  0  0  0  0  0
  148.4200  141.7960  153.1710 C   0  0  0  0  0  2  0  0  0  0  0  0
  137.3290  137.6910  153.7700 O   0  0  0  0  0  0  0  0  0  0  0  0
  136.8630  136.3700  154.0510 C   0  0  0  0  0  2  0  0  0  0  0  0
  135.9570  136.4260  155.2850 C   0  0  0  0  0  2  0  0  0  0  0  0
  135.4040  135.1150  155.6190 N   0  0  0  0  0  4  0  0  0  0  0  0
  135.5040  134.4900  154.8180 H   0  0  0  0  0  0  0  0  0  0  0  0
  134.4160  135.2120  155.8520 H   0  0  0  0  0  0  0  0  0  0  0  0
  135.9060  134.7280  156.4170 H   0  0  0  0  0  0  0  0  0  0  0  0
  1  6  1  0  0  0  0
  2  3  1  0  0  0  0
  2  1  2  0  0  0  0
  3  4  2  0  0  0  0
  4 22  1  0  0  0  0
  4  5  1  0  0  0  0
  5  7  1  0  0  0  0
  6  5  2  0  0  0  0
  7  8  1  0  0  0  0
  9  1  1  0  0  0  0
 10 11  2  0  0  0  0
 10 12  1  0  0  0  0
 12  9  1  0  0  0  0
 13 12  1  0  0  0  0
 14 10  1  0  0  0  0
 15 14  1  0  0  0  0
 16 15  1  0  0  0  0
 16 17  1  0  0  0  0
 17 18  1  0  0  0  0
 18 19  1  0  0  0  0
 19 21  1  0  0  0  0
 21 20  1  0  0  0  0
 22 23  1  0  0  0  0
 23 24  1  0  0  0  0
 24 25  1  0  0  0  0
 25 27  1  0  0  0  0
 25 28  1  0  0  0  0
 26 25  1  0  0  0  0
M  END
>  <MODEL>
2

>  <REMARK>
 VINA RESULT:    -5.640      4.867      7.425
 INTER + INTRA:         -12.023
 INTER:                 -10.776
 INTRA:                  -1.247
 UNBOUND:                -1.932
  Name = CHEMBL421008
  16 active torsions:
  status: ('A' for Active; 'I' for Inactive)
    1  A    between atoms: C_1  and  C_2
    2  A    between atoms: C_2  and  C_3
    3  A    between atoms: C_3  and  C_4
    4  A    between atoms: C_4  and  C_5
    5  A    between atoms: C_5  and  C_6
    6  A    between atoms: C_6  and  C_7
    7  A    between atoms: C_7  and  C_8
    8  A    between atoms: C_8  and  C_9
    9  A    between atoms: N_11  and  C_12
   10  A    between atoms: C_12  and  C_13
   11  A    between atoms: C_16  and  O_17
   12  A    between atoms: O_17  and  C_18
   13  A    between atoms: C_18  and  C_19
   14  A    between atoms: C_19  and  N_20
   15  A    between atoms: C_21  and  O_22
   16  A    between atoms: O_22  and  C_23
                            x       y       z     vdW  Elec       q    Type
                         _______ _______ _______ _____ _____    ______ ____

>  <TORSDO>
F 14

>  <SCORE>
-5.640

>  <RMSD_LB>
4.867

>  <RMSD_UB>
7.425

$$$$
CHEMBL421008
 OpenBabel10172500413D

 28 28  0  0  0  0  0  0  0  0999 V2000
  143.6190  137.4020  152.9540 C   0  0  0  0  0  0  0  0  0  0  0  0
  143.1430  137.0700  151.6830 C   0  0  0  0  0  3  0  0  0  0  0  0
  141.8390  137.3990  151.3030 C   0  0  0  0  0  3  0  0  0  0  0  0
  140.9670  138.0480  152.1890 C   0  0  0  0  0  0  0  0  0  0  0  0
  141.4230  138.3420  153.4860 C   0  0  0  0  0  0  0  0  0  0  0  0
  142.7480  138.0400  153.8460 C   0  0  0  0  0  3  0  0  0  0  0  0
  140.7200  138.9630  154.4880 O   0  0  0  0  0  0  0  0  0  0  0  0
  139.8490  138.1400  155.2570 C   0  0  0  0  0  1  0  0  0  0  0  0
  145.0320  137.0660  153.3500 C   0  0  0  0  0  2  0  0  0  0  0  0
  146.9080  138.1220  154.5500 C   0  0  0  0  0  0  0  0  0  0  0  0
  147.3470  137.0580  154.9720 O   0  0  0  0  0  0  0  0  0  0  0  0
  145.7730  138.2240  153.7810 N   0  0  0  0  0  0  0  0  0  0  0  0
  145.4560  139.1180  153.5170 H   0  0  0  0  0  0  0  0  0  0  0  0
  147.5590  139.4650  154.8420 C   0  0  0  0  0  2  0  0  0  0  0  0
  148.2820  139.9990  153.6100 C   0  0  0  0  0  2  0  0  0  0  0  0
  148.1330  141.5130  153.4620 C   0  0  0  0  0  2  0  0  0  0  0  0
  146.6980  141.9340  153.7790 C   0  0  0  0  0  2  0  0  0  0  0  0
  145.9810  142.4870  152.5490 C   0  0  0  0  0  2  0  0  0  0  0  0
  145.6400  141.3630  151.5700 C   0  0  0  0  0  2  0  0  0  0  0  0
  147.0160  142.7310  149.9700 C   0  0  0  0  0  1  0  0  0  0  0  0
  145.8130  141.8140  150.1210 C   0  0  0  0  0  2  0  0  0  0  0  0
  139.7000  138.4400  151.8460 O   0  0  0  0  0  0  0  0  0  0  0  0
  139.5480  139.7110  151.2120 C   0  0  0  0  0  2  0  0  0  0  0  0
  139.0640  139.4840  149.7760 C   0  0  0  0  0  2  0  0  0  0  0  0
  137.6430  139.7930  149.6230 N   0  0  0  0  0  4  0  0  0  0  0  0
  137.2590  140.0840  150.5230 H   0  0  0  0  0  0  0  0  0  0  0  0
  137.1480  138.9640  149.2950 H   0  0  0  0  0  0  0  0  0  0  0  0
  137.5300  140.5470  148.9450 H   0  0  0  0  0  0  0  0  0  0  0  0
  1  9  1  0  0  0  0
  1  6  1  0  0  0  0
  2  1  2  0  0  0  0
  3  2  1  0  0  0  0
  3  4  2  0  0  0  0
  4  5  1  0  0  0  0
  5  6  2  0  0  0  0
  5  7  1  0  0  0  0
  7  8  1  0  0  0  0
  9 12  1  0  0  0  0
 10 14  1  0  0  0  0
 10 11  2  0  0  0  0
 12 10  1  0  0  0  0
 13 12  1  0  0  0  0
 15 14  1  0  0  0  0
 16 15  1  0  0  0  0
 16 17  1  0  0  0  0
 18 17  1  0  0  0  0
 19 18  1  0  0  0  0
 20 21  1  0  0  0  0
 21 19  1  0  0  0  0
 22  4  1  0  0  0  0
 23 22  1  0  0  0  0
 24 23  1  0  0  0  0
 25 24  1  0  0  0  0
 25 26  1  0  0  0  0
 27 25  1  0  0  0  0
 28 25  1  0  0  0  0
M  END
>  <MODEL>
3

>  <REMARK>
 VINA RESULT:    -5.508      5.486      8.047
 INTER + INTRA:         -11.787
 INTER:                 -10.499
 INTRA:                  -1.288
 UNBOUND:                -1.932
  Name = CHEMBL421008
  16 active torsions:
  status: ('A' for Active; 'I' for Inactive)
    1  A    between atoms: C_1  and  C_2
    2  A    between atoms: C_2  and  C_3
    3  A    between atoms: C_3  and  C_4
    4  A    between atoms: C_4  and  C_5
    5  A    between atoms: C_5  and  C_6
    6  A    between atoms: C_6  and  C_7
    7  A    between atoms: C_7  and  C_8
    8  A    between atoms: C_8  and  C_9
    9  A    between atoms: N_11  and  C_12
   10  A    between atoms: C_12  and  C_13
   11  A    between atoms: C_16  and  O_17
   12  A    between atoms: O_17  and  C_18
   13  A    between atoms: C_18  and  C_19
   14  A    between atoms: C_19  and  N_20
   15  A    between atoms: C_21  and  O_22
   16  A    between atoms: O_22  and  C_23
                            x       y       z     vdW  Elec       q    Type
                         _______ _______ _______ _____ _____    ______ ____

>  <TORSDO>
F 14

>  <SCORE>
-5.508

>  <RMSD_LB>
5.486

>  <RMSD_UB>
8.047

$$$$
CHEMBL421008
 OpenBabel10172500413D

 28 28  0  0  0  0  0  0  0  0999 V2000
  143.9180  137.3690  152.7870 C   0  0  0  0  0  0  0  0  0  0  0  0
  142.9150  137.7990  153.6580 C   0  0  0  0  0  3  0  0  0  0  0  0
  141.5840  137.8670  153.2340 C   0  0  0  0  0  3  0  0  0  0  0  0
  141.2240  137.5290  151.9220 C   0  0  0  0  0  0  0  0  0  0  0  0
  142.2350  137.1420  151.0250 C   0  0  0  0  0  0  0  0  0  0  0  0
  143.5640  137.0410  151.4720 C   0  0  0  0  0  3  0  0  0  0  0  0
  142.0790  136.7820  149.7090 O   0  0  0  0  0  0  0  0  0  0  0  0
  142.7630  137.5800  148.7490 C   0  0  0  0  0  1  0  0  0  0  0  0
  145.3460  137.2750  153.2550 C   0  0  0  0  0  2  0  0  0  0  0  0
  147.1860  138.8760  153.6090 C   0  0  0  0  0  0  0  0  0  0  0  0
  148.0430  138.1180  153.1680 O   0  0  0  0  0  0  0  0  0  0  0  0
  145.8570  138.5410  153.7170 N   0  0  0  0  0  0  0  0  0  0  0  0
  145.2350  139.1870  154.1230 H   0  0  0  0  0  0  0  0  0  0  0  0
  147.4950  140.2790  154.1080 C   0  0  0  0  0  2  0  0  0  0  0  0
  148.5360  140.9560  153.2220 C   0  0  0  0  0  2  0  0  0  0  0  0
  147.9080  141.9620  152.2580 C   0  0  0  0  0  2  0  0  0  0  0  0
  146.4980  142.3290  152.7240 C   0  0  0  0  0  2  0  0  0  0  0  0
  145.5050  142.3680  151.5640 C   0  0  0  0  0  2  0  0  0  0  0  0
  144.7460  141.0450  151.4570 C   0  0  0  0  0  2  0  0  0  0  0  0
  146.1280  139.4260  150.1170 C   0  0  0  0  0  1  0  0  0  0  0  0
  144.9540  140.3910  150.0920 C   0  0  0  0  0  2  0  0  0  0  0  0
  139.9290  137.5260  151.4750 O   0  0  0  0  0  0  0  0  0  0  0  0
  139.2550  138.7830  151.3890 C   0  0  0  0  0  2  0  0  0  0  0  0
  138.8010  138.9930  149.9410 C   0  0  0  0  0  2  0  0  0  0  0  0
  137.8830  140.1240  149.8130 N   0  0  0  0  0  4  0  0  0  0  0  0
  137.1950  139.9240  149.0860 H   0  0  0  0  0  0  0  0  0  0  0  0
  138.4080  140.9610  149.5620 H   0  0  0  0  0  0  0  0  0  0  0  0
  137.4050  140.2750  150.7010 H   0  0  0  0  0  0  0  0  0  0  0  0
  1  9  1  0  0  0  0
  1  2  1  0  0  0  0
  3  2  2  0  0  0  0
  4  3  1  0  0  0  0
  5  6  1  0  0  0  0
  5  4  2  0  0  0  0
  6  1  2  0  0  0  0
  7  5  1  0  0  0  0
  8  7  1  0  0  0  0
  9 12  1  0  0  0  0
 10 12  1  0  0  0  0
 10 14  1  0  0  0  0
 11 10  2  0  0  0  0
 12 13  1  0  0  0  0
 15 14  1  0  0  0  0
 16 17  1  0  0  0  0
 16 15  1  0  0  0  0
 18 17  1  0  0  0  0
 19 18  1  0  0  0  0
 21 20  1  0  0  0  0
 21 19  1  0  0  0  0
 22  4  1  0  0  0  0
 23 22  1  0  0  0  0
 24 23  1  0  0  0  0
 25 24  1  0  0  0  0
 25 28  1  0  0  0  0
 26 25  1  0  0  0  0
 27 25  1  0  0  0  0
M  END
>  <MODEL>
4

>  <REMARK>
 VINA RESULT:    -5.485      5.559      7.906
 INTER + INTRA:         -11.746
 INTER:                  -9.700
 INTRA:                  -2.046
 UNBOUND:                -1.932
  Name = CHEMBL421008
  16 active torsions:
  status: ('A' for Active; 'I' for Inactive)
    1  A    between atoms: C_1  and  C_2
    2  A    between atoms: C_2  and  C_3
    3  A    between atoms: C_3  and  C_4
    4  A    between atoms: C_4  and  C_5
    5  A    between atoms: C_5  and  C_6
    6  A    between atoms: C_6  and  C_7
    7  A    between atoms: C_7  and  C_8
    8  A    between atoms: C_8  and  C_9
    9  A    between atoms: N_11  and  C_12
   10  A    between atoms: C_12  and  C_13
   11  A    between atoms: C_16  and  O_17
   12  A    between atoms: O_17  and  C_18
   13  A    between atoms: C_18  and  C_19
   14  A    between atoms: C_19  and  N_20
   15  A    between atoms: C_21  and  O_22
   16  A    between atoms: O_22  and  C_23
                            x       y       z     vdW  Elec       q    Type
                         _______ _______ _______ _____ _____    ______ ____

>  <TORSDO>
F 14

>  <SCORE>
-5.485

>  <RMSD_LB>
5.559

>  <RMSD_UB>
7.906

$$$$
CHEMBL421008
 OpenBabel10172500413D

 28 28  0  0  0  0  0  0  0  0999 V2000
  142.8360  137.8570  151.7660 C   0  0  0  0  0  0  0  0  0  0  0  0
  141.4850  137.5030  151.7350 C   0  0  0  0  0  3  0  0  0  0  0  0
  140.6390  137.8280  152.8000 C   0  0  0  0  0  3  0  0  0  0  0  0
  141.1250  138.4930  153.9350 C   0  0  0  0  0  0  0  0  0  0  0  0
  142.4930  138.8080  153.9940 C   0  0  0  0  0  0  0  0  0  0  0  0
  143.3280  138.5110  152.9030 C   0  0  0  0  0  3  0  0  0  0  0  0
  143.1500  139.4490  155.0170 O   0  0  0  0  0  0  0  0  0  0  0  0
  144.5390  139.6940  154.8230 C   0  0  0  0  0  1  0  0  0  0  0  0
  143.7370  137.5250  150.6070 C   0  0  0  0  0  2  0  0  0  0  0  0
  145.5390  139.1250  150.0860 C   0  0  0  0  0  0  0  0  0  0  0  0
  146.3550  138.5730  150.8180 O   0  0  0  0  0  0  0  0  0  0  0  0
  144.2380  138.7030  149.9450 N   0  0  0  0  0  0  0  0  0  0  0  0
  143.6280  139.2240  149.3740 H   0  0  0  0  0  0  0  0  0  0  0  0
  145.8650  140.3570  149.2570 C   0  0  0  0  0  2  0  0  0  0  0  0
  146.4280  141.4700  150.1340 C   0  0  0  0  0  2  0  0  0  0  0  0
  145.3740  142.0560  151.0740 C   0  0  0  0  0  2  0  0  0  0  0  0
  146.0080  142.4170  152.4170 C   0  0  0  0  0  2  0  0  0  0  0  0
  147.4200  141.8500  152.5520 C   0  0  0  0  0  2  0  0  0  0  0  0
  147.8510  141.8140  154.0190 C   0  0  0  0  0  2  0  0  0  0  0  0
  148.6000  139.5430  153.2410 C   0  0  0  0  0  1  0  0  0  0  0  0
  148.2650  140.4070  154.4460 C   0  0  0  0  0  2  0  0  0  0  0  0
  140.3260  138.8810  154.9780 O   0  0  0  0  0  0  0  0  0  0  0  0
  140.0550  137.9190  155.9990 C   0  0  0  0  0  2  0  0  0  0  0  0
  138.5420  137.8740  156.2350 C   0  0  0  0  0  2  0  0  0  0  0  0
  137.8040  138.5820  155.1900 N   0  0  0  0  0  4  0  0  0  0  0  0
  137.5280  137.9230  154.4620 H   0  0  0  0  0  0  0  0  0  0  0  0
  138.3970  139.3060  154.7860 H   0  0  0  0  0  0  0  0  0  0  0  0
  136.9710  139.0100  155.5940 H   0  0  0  0  0  0  0  0  0  0  0  0
  1  6  1  0  0  0  0
  2  1  2  0  0  0  0
  2  3  1  0  0  0  0
  3  4  2  0  0  0  0
  4  5  1  0  0  0  0
  4 22  1  0  0  0  0
  5  7  1  0  0  0  0
  6  5  2  0  0  0  0
  8  7  1  0  0  0  0
  9  1  1  0  0  0  0
 10 11  2  0  0  0  0
 12 10  1  0  0  0  0
 12  9  1  0  0  0  0
 13 12  1  0  0  0  0
 14 10  1  0  0  0  0
 14 15  1  0  0  0  0
 15 16  1  0  0  0  0
 16 17  1  0  0  0  0
 17 18  1  0  0  0  0
 18 19  1  0  0  0  0
 19 21  1  0  0  0  0
 20 21  1  0  0  0  0
 22 23  1  0  0  0  0
 23 24  1  0  0  0  0
 25 28  1  0  0  0  0
 25 24  1  0  0  0  0
 26 25  1  0  0  0  0
 27 25  1  0  0  0  0
M  END
>  <MODEL>
5

>  <REMARK>
 VINA RESULT:    -5.429      5.439      8.806
 INTER + INTRA:         -11.646
 INTER:                 -10.194
 INTRA:                  -1.452
 UNBOUND:                -1.932
  Name = CHEMBL421008
  16 active torsions:
  status: ('A' for Active; 'I' for Inactive)
    1  A    between atoms: C_1  and  C_2
    2  A    between atoms: C_2  and  C_3
    3  A    between atoms: C_3  and  C_4
    4  A    between atoms: C_4  and  C_5
    5  A    between atoms: C_5  and  C_6
    6  A    between atoms: C_6  and  C_7
    7  A    between atoms: C_7  and  C_8
    8  A    between atoms: C_8  and  C_9
    9  A    between atoms: N_11  and  C_12
   10  A    between atoms: C_12  and  C_13
   11  A    between atoms: C_16  and  O_17
   12  A    between atoms: O_17  and  C_18
   13  A    between atoms: C_18  and  C_19
   14  A    between atoms: C_19  and  N_20
   15  A    between atoms: C_21  and  O_22
   16  A    between atoms: O_22  and  C_23
                            x       y       z     vdW  Elec       q    Type
                         _______ _______ _______ _____ _____    ______ ____

>  <TORSDO>
F 14

>  <SCORE>
-5.429

>  <RMSD_LB>
5.439

>  <RMSD_UB>
8.806

$$$$
CHEMBL421008
 OpenBabel10172500413D

 28 28  0  0  0  0  0  0  0  0999 V2000
  138.9230  137.6960  151.8320 C   0  0  0  0  0  0  0  0  0  0  0  0
  140.1610  137.4080  151.2520 C   0  0  0  0  0  3  0  0  0  0  0  0
  141.3380  137.5090  151.9990 C   0  0  0  0  0  3  0  0  0  0  0  0
  141.3130  137.9240  153.3380 C   0  0  0  0  0  0  0  0  0  0  0  0
  140.0760  138.2640  153.9140 C   0  0  0  0  0  0  0  0  0  0  0  0
  138.8950  138.1230  153.1670 C   0  0  0  0  0  3  0  0  0  0  0  0
  139.8530  138.6930  155.2000 O   0  0  0  0  0  0  0  0  0  0  0  0
  138.7480  138.1090  155.8800 C   0  0  0  0  0  1  0  0  0  0  0  0
  137.6560  137.5630  151.0310 C   0  0  0  0  0  2  0  0  0  0  0  0
  136.2220  135.8080  152.0010 C   0  0  0  0  0  0  0  0  0  0  0  0
  135.8330  136.5180  152.9220 O   0  0  0  0  0  0  0  0  0  0  0  0
  137.1290  136.2220  151.0540 N   0  0  0  0  0  0  0  0  0  0  0  0
  137.4280  135.5800  150.3700 H   0  0  0  0  0  0  0  0  0  0  0  0
  135.7590  134.3740  151.8040 C   0  0  0  0  0  2  0  0  0  0  0  0
  135.3170  134.1370  150.3630 C   0  0  0  0  0  2  0  0  0  0  0  0
  134.0550  133.2790  150.2790 C   0  0  0  0  0  2  0  0  0  0  0  0
  132.8360  134.1610  150.0060 C   0  0  0  0  0  2  0  0  0  0  0  0
  133.2350  135.5320  149.4620 C   0  0  0  0  0  2  0  0  0  0  0  0
  132.9410  135.6260  147.9640 C   0  0  0  0  0  2  0  0  0  0  0  0
  133.1480  137.4910  146.2900 C   0  0  0  0  0  1  0  0  0  0  0  0
  132.4780  137.0290  147.5740 C   0  0  0  0  0  2  0  0  0  0  0  0
  142.4320  137.9880  154.1270 O   0  0  0  0  0  0  0  0  0  0  0  0
  143.0590  139.2610  154.2880 C   0  0  0  0  0  2  0  0  0  0  0  0
  144.2840  139.3190  153.3700 C   0  0  0  0  0  2  0  0  0  0  0  0
  144.0900  140.2450  152.2560 N   0  0  0  0  0  4  0  0  0  0  0  0
  143.7470  141.1380  152.6110 H   0  0  0  0  0  0  0  0  0  0  0  0
  143.4100  139.8560  151.6040 H   0  0  0  0  0  0  0  0  0  0  0  0
  144.9780  140.3890  151.7750 H   0  0  0  0  0  0  0  0  0  0  0  0
  1  6  1  0  0  0  0
  2  1  2  0  0  0  0
  2  3  1  0  0  0  0
  3  4  2  0  0  0  0
  4  5  1  0  0  0  0
  4 22  1  0  0  0  0
  5  7  1  0  0  0  0
  6  5  2  0  0  0  0
  7  8  1  0  0  0  0
  9 12  1  0  0  0  0
  9  1  1  0  0  0  0
 10 11  2  0  0  0  0
 12 10  1  0  0  0  0
 13 12  1  0  0  0  0
 14 10  1  0  0  0  0
 15 14  1  0  0  0  0
 16 15  1  0  0  0  0
 17 16  1  0  0  0  0
 18 17  1  0  0  0  0
 19 18  1  0  0  0  0
 20 21  1  0  0  0  0
 21 19  1  0  0  0  0
 22 23  1  0  0  0  0
 24 23  1  0  0  0  0
 25 26  1  0  0  0  0
 25 24  1  0  0  0  0
 27 25  1  0  0  0  0
 28 25  1  0  0  0  0
M  END
>  <MODEL>
6

>  <REMARK>
 VINA RESULT:    -5.411      2.818      7.776
 INTER + INTRA:         -11.613
 INTER:                 -10.736
 INTRA:                  -0.877
 UNBOUND:                -1.932
  Name = CHEMBL421008
  16 active torsions:
  status: ('A' for Active; 'I' for Inactive)
    1  A    between atoms: C_1  and  C_2
    2  A    between atoms: C_2  and  C_3
    3  A    between atoms: C_3  and  C_4
    4  A    between atoms: C_4  and  C_5
    5  A    between atoms: C_5  and  C_6
    6  A    between atoms: C_6  and  C_7
    7  A    between atoms: C_7  and  C_8
    8  A    between atoms: C_8  and  C_9
    9  A    between atoms: N_11  and  C_12
   10  A    between atoms: C_12  and  C_13
   11  A    between atoms: C_16  and  O_17
   12  A    between atoms: O_17  and  C_18
   13  A    between atoms: C_18  and  C_19
   14  A    between atoms: C_19  and  N_20
   15  A    between atoms: C_21  and  O_22
   16  A    between atoms: O_22  and  C_23
                            x       y       z     vdW  Elec       q    Type
                         _______ _______ _______ _____ _____    ______ ____

>  <TORSDO>
F 14

>  <SCORE>
-5.411

>  <RMSD_LB>
2.818

>  <RMSD_UB>
7.776

$$$$
CHEMBL421008
 OpenBabel10172500413D

 28 28  0  0  0  0  0  0  0  0999 V2000
  138.7420  138.1100  153.6520 C   0  0  0  0  0  0  0  0  0  0  0  0
  137.7100  137.3880  154.2570 C   0  0  0  0  0  3  0  0  0  0  0  0
  136.8180  136.6370  153.4850 C   0  0  0  0  0  3  0  0  0  0  0  0
  136.9190  136.6050  152.0870 C   0  0  0  0  0  0  0  0  0  0  0  0
  137.9250  137.3690  151.4680 C   0  0  0  0  0  0  0  0  0  0  0  0
  138.8380  138.0910  152.2540 C   0  0  0  0  0  3  0  0  0  0  0  0
  138.1750  137.4680  150.1210 O   0  0  0  0  0  0  0  0  0  0  0  0
  137.6900  138.6380  149.4710 C   0  0  0  0  0  1  0  0  0  0  0  0
  139.7130  138.8990  154.4890 C   0  0  0  0  0  2  0  0  0  0  0  0
  142.1490  139.2480  154.6250 C   0  0  0  0  0  0  0  0  0  0  0  0
  142.1310  139.4970  155.8260 O   0  0  0  0  0  0  0  0  0  0  0  0
  141.0200  138.9760  153.8880 N   0  0  0  0  0  0  0  0  0  0  0  0
  141.1090  138.8310  152.9190 H   0  0  0  0  0  0  0  0  0  0  0  0
  143.4250  139.2280  153.7990 C   0  0  0  0  0  2  0  0  0  0  0  0
  144.5700  139.9030  154.5480 C   0  0  0  0  0  2  0  0  0  0  0  0
  145.9280  139.2990  154.1940 C   0  0  0  0  0  2  0  0  0  0  0  0
  146.9930  140.3960  154.1370 C   0  0  0  0  0  2  0  0  0  0  0  0
  146.3920  141.7570  153.7920 C   0  0  0  0  0  2  0  0  0  0  0  0
  146.7870  142.1800  152.3770 C   0  0  0  0  0  2  0  0  0  0  0  0
  145.1860  141.3510  150.6240 C   0  0  0  0  0  1  0  0  0  0  0  0
  145.5590  142.5120  151.5300 C   0  0  0  0  0  2  0  0  0  0  0  0
  136.1050  135.8420  151.2910 O   0  0  0  0  0  0  0  0  0  0  0  0
  135.9230  134.4720  151.6510 C   0  0  0  0  0  2  0  0  0  0  0  0
  134.4210  134.1740  151.6840 C   0  0  0  0  0  2  0  0  0  0  0  0
  133.9220  134.0220  153.0500 N   0  0  0  0  0  4  0  0  0  0  0  0
  134.2890  133.1580  153.4510 H   0  0  0  0  0  0  0  0  0  0  0  0
  132.9030  133.9840  153.0380 H   0  0  0  0  0  0  0  0  0  0  0  0
  134.2280  134.8150  153.6130 H   0  0  0  0  0  0  0  0  0  0  0  0
  1  2  1  0  0  0  0
  1  9  1  0  0  0  0
  3  2  2  0  0  0  0
  4  3  1  0  0  0  0
  5  4  2  0  0  0  0
  5  6  1  0  0  0  0
  6  1  2  0  0  0  0
  7  5  1  0  0  0  0
  8  7  1  0  0  0  0
 10 11  2  0  0  0  0
 12  9  1  0  0  0  0
 12 10  1  0  0  0  0
 13 12  1  0  0  0  0
 14 15  1  0  0  0  0
 14 10  1  0  0  0  0
 16 15  1  0  0  0  0
 17 16  1  0  0  0  0
 18 17  1  0  0  0  0
 19 18  1  0  0  0  0
 20 21  1  0  0  0  0
 21 19  1  0  0  0  0
 22 23  1  0  0  0  0
 22  4  1  0  0  0  0
 23 24  1  0  0  0  0
 24 25  1  0  0  0  0
 25 26  1  0  0  0  0
 25 28  1  0  0  0  0
 27 25  1  0  0  0  0
M  END
>  <MODEL>
7

>  <REMARK>
 VINA RESULT:    -5.364      3.870      4.917
 INTER + INTRA:         -11.529
 INTER:                 -10.425
 INTRA:                  -1.104
 UNBOUND:                -1.932
  Name = CHEMBL421008
  16 active torsions:
  status: ('A' for Active; 'I' for Inactive)
    1  A    between atoms: C_1  and  C_2
    2  A    between atoms: C_2  and  C_3
    3  A    between atoms: C_3  and  C_4
    4  A    between atoms: C_4  and  C_5
    5  A    between atoms: C_5  and  C_6
    6  A    between atoms: C_6  and  C_7
    7  A    between atoms: C_7  and  C_8
    8  A    between atoms: C_8  and  C_9
    9  A    between atoms: N_11  and  C_12
   10  A    between atoms: C_12  and  C_13
   11  A    between atoms: C_16  and  O_17
   12  A    between atoms: O_17  and  C_18
   13  A    between atoms: C_18  and  C_19
   14  A    between atoms: C_19  and  N_20
   15  A    between atoms: C_21  and  O_22
   16  A    between atoms: O_22  and  C_23
                            x       y       z     vdW  Elec       q    Type
                         _______ _______ _______ _____ _____    ______ ____

>  <TORSDO>
F 14

>  <SCORE>
-5.364

>  <RMSD_LB>
3.870

>  <RMSD_UB>
4.917

$$$$
CHEMBL421008
 OpenBabel10172500413D

 28 28  0  0  0  0  0  0  0  0999 V2000
  142.6790  137.5660  152.0430 C   0  0  0  0  0  0  0  0  0  0  0  0
  141.9670  137.0850  150.9410 C   0  0  0  0  0  3  0  0  0  0  0  0
  140.5730  137.1890  150.8940 C   0  0  0  0  0  3  0  0  0  0  0  0
  139.8520  137.7550  151.9550 C   0  0  0  0  0  0  0  0  0  0  0  0
  140.5580  138.1960  153.0880 C   0  0  0  0  0  0  0  0  0  0  0  0
  141.9610  138.1210  153.1100 C   0  0  0  0  0  3  0  0  0  0  0  0
  140.0300  138.7670  154.2200 O   0  0  0  0  0  0  0  0  0  0  0  0
  140.4220  138.1930  155.4620 C   0  0  0  0  0  1  0  0  0  0  0  0
  144.1810  137.4730  152.0790 C   0  0  0  0  0  2  0  0  0  0  0  0
  145.5950  137.8510  154.0630 C   0  0  0  0  0  0  0  0  0  0  0  0
  145.8660  136.6630  154.2000 O   0  0  0  0  0  0  0  0  0  0  0  0
  144.7620  138.3320  153.0800 N   0  0  0  0  0  0  0  0  0  0  0  0
  144.5540  139.2940  153.0600 H   0  0  0  0  0  0  0  0  0  0  0  0
  146.1350  138.9390  154.9770 C   0  0  0  0  0  2  0  0  0  0  0  0
  147.6120  138.7100  155.2820 C   0  0  0  0  0  2  0  0  0  0  0  0
  148.4770  139.9060  154.8860 C   0  0  0  0  0  2  0  0  0  0  0  0
  147.6330  140.9430  154.1440 C   0  0  0  0  0  2  0  0  0  0  0  0
  148.4840  141.8250  153.2320 C   0  0  0  0  0  2  0  0  0  0  0  0
  147.7750  142.0680  151.8990 C   0  0  0  0  0  2  0  0  0  0  0  0
  145.5930  142.6430  150.7880 C   0  0  0  0  0  1  0  0  0  0  0  0
  146.2720  142.2620  152.0930 C   0  0  0  0  0  2  0  0  0  0  0  0
  138.4930  137.9280  151.9330 O   0  0  0  0  0  0  0  0  0  0  0  0
  137.7610  137.2910  150.8850 C   0  0  0  0  0  2  0  0  0  0  0  0
  136.5830  136.5330  151.5060 C   0  0  0  0  0  2  0  0  0  0  0  0
  136.5120  135.1510  151.0350 N   0  0  0  0  0  4  0  0  0  0  0  0
  136.9150  134.5310  151.7390 H   0  0  0  0  0  0  0  0  0  0  0  0
  137.0350  135.0610  150.1640 H   0  0  0  0  0  0  0  0  0  0  0  0
  135.5380  134.8960  150.8750 H   0  0  0  0  0  0  0  0  0  0  0  0
  1  9  1  0  0  0  0
  1  6  1  0  0  0  0
  2  1  2  0  0  0  0
  3  2  1  0  0  0  0
  3  4  2  0  0  0  0
  4  5  1  0  0  0  0
  5  6  2  0  0  0  0
  5  7  1  0  0  0  0
  7  8  1  0  0  0  0
  9 12  1  0  0  0  0
 10 11  2  0  0  0  0
 10 14  1  0  0  0  0
 12 10  1  0  0  0  0
 13 12  1  0  0  0  0
 14 15  1  0  0  0  0
 16 15  1  0  0  0  0
 17 16  1  0  0  0  0
 18 17  1  0  0  0  0
 19 21  1  0  0  0  0
 19 18  1  0  0  0  0
 20 21  1  0  0  0  0
 22  4  1  0  0  0  0
 23 24  1  0  0  0  0
 23 22  1  0  0  0  0
 25 24  1  0  0  0  0
 25 26  1  0  0  0  0
 27 25  1  0  0  0  0
 28 25  1  0  0  0  0
M  END
>  <MODEL>
8

>  <REMARK>
 VINA RESULT:    -5.334      5.262      7.384
 INTER + INTRA:         -11.475
 INTER:                 -10.494
 INTRA:                  -0.981
 UNBOUND:                -1.932
  Name = CHEMBL421008
  16 active torsions:
  status: ('A' for Active; 'I' for Inactive)
    1  A    between atoms: C_1  and  C_2
    2  A    between atoms: C_2  and  C_3
    3  A    between atoms: C_3  and  C_4
    4  A    between atoms: C_4  and  C_5
    5  A    between atoms: C_5  and  C_6
    6  A    between atoms: C_6  and  C_7
    7  A    between atoms: C_7  and  C_8
    8  A    between atoms: C_8  and  C_9
    9  A    between atoms: N_11  and  C_12
   10  A    between atoms: C_12  and  C_13
   11  A    between atoms: C_16  and  O_17
   12  A    between atoms: O_17  and  C_18
   13  A    between atoms: C_18  and  C_19
   14  A    between atoms: C_19  and  N_20
   15  A    between atoms: C_21  and  O_22
   16  A    between atoms: O_22  and  C_23
                            x       y       z     vdW  Elec       q    Type
                         _______ _______ _______ _____ _____    ______ ____

>  <TORSDO>
F 14

>  <SCORE>
-5.334

>  <RMSD_LB>
5.262

>  <RMSD_UB>
7.384

$$$$
CHEMBL421008
 OpenBabel10172500413D

 28 28  0  0  0  0  0  0  0  0999 V2000
  146.8710  141.9070  150.8220 C   0  0  0  0  0  0  0  0  0  0  0  0
  148.1930  141.9990  151.2620 C   0  0  0  0  0  3  0  0  0  0  0  0
  148.5540  141.5410  152.5340 C   0  0  0  0  0  3  0  0  0  0  0  0
  147.5990  141.0000  153.4070 C   0  0  0  0  0  0  0  0  0  0  0  0
  146.2580  140.9500  152.9890 C   0  0  0  0  0  0  0  0  0  0  0  0
  145.9120  141.3780  151.6960 C   0  0  0  0  0  3  0  0  0  0  0  0
  145.1880  140.4640  153.7000 O   0  0  0  0  0  0  0  0  0  0  0  0
  144.2420  139.6880  152.9720 C   0  0  0  0  0  1  0  0  0  0  0  0
  146.4920  142.3800  149.4440 C   0  0  0  0  0  2  0  0  0  0  0  0
  146.2220  141.2080  147.2930 C   0  0  0  0  0  0  0  0  0  0  0  0
  146.9160  142.0070  146.6740 O   0  0  0  0  0  0  0  0  0  0  0  0
  145.9380  141.3260  148.6330 N   0  0  0  0  0  0  0  0  0  0  0  0
  145.3360  140.6690  149.0510 H   0  0  0  0  0  0  0  0  0  0  0  0
  145.5750  139.9930  146.6460 C   0  0  0  0  0  2  0  0  0  0  0  0
  145.9770  138.7120  147.3700 C   0  0  0  0  0  2  0  0  0  0  0  0
  144.7660  137.9340  147.8850 C   0  0  0  0  0  2  0  0  0  0  0  0
  145.2030  136.5650  148.4070 C   0  0  0  0  0  2  0  0  0  0  0  0
  144.3460  136.1030  149.5840 C   0  0  0  0  0  2  0  0  0  0  0  0
  144.9430  136.5830  150.9080 C   0  0  0  0  0  2  0  0  0  0  0  0
  147.0950  137.7980  151.3700 C   0  0  0  0  0  1  0  0  0  0  0  0
  146.4680  136.4970  150.8970 C   0  0  0  0  0  2  0  0  0  0  0  0
  147.9120  140.4880  154.6390 O   0  0  0  0  0  0  0  0  0  0  0  0
  148.2050  139.0930  154.7220 C   0  0  0  0  0  2  0  0  0  0  0  0
  147.4890  138.5170  155.9470 C   0  0  0  0  0  2  0  0  0  0  0  0
  146.0870  138.9300  156.0060 N   0  0  0  0  0  4  0  0  0  0  0  0
  145.7950  139.2730  155.0900 H   0  0  0  0  0  0  0  0  0  0  0  0
  145.9800  139.6720  156.6970 H   0  0  0  0  0  0  0  0  0  0  0  0
  145.5090  138.1320  156.2700 H   0  0  0  0  0  0  0  0  0  0  0  0
  1  2  2  0  0  0  0
  1  6  1  0  0  0  0
  2  3  1  0  0  0  0
  3  4  2  0  0  0  0
  4 22  1  0  0  0  0
  5  4  1  0  0  0  0
  5  7  1  0  0  0  0
  6  5  2  0  0  0  0
  8  7  1  0  0  0  0
  9  1  1  0  0  0  0
 10 12  1  0  0  0  0
 11 10  2  0  0  0  0
 12 13  1  0  0  0  0
 12  9  1  0  0  0  0
 14 10  1  0  0  0  0
 14 15  1  0  0  0  0
 15 16  1  0  0  0  0
 16 17  1  0  0  0  0
 17 18  1  0  0  0  0
 18 19  1  0  0  0  0
 21 19  1  0  0  0  0
 21 20  1  0  0  0  0
 22 23  1  0  0  0  0
 23 24  1  0  0  0  0
 24 25  1  0  0  0  0
 25 28  1  0  0  0  0
 25 27  1  0  0  0  0
 26 25  1  0  0  0  0
M  END
>  <MODEL>
9

>  <REMARK>
 VINA RESULT:    -5.272      8.919     12.085
 INTER + INTRA:         -11.364
 INTER:                  -9.432
 INTRA:                  -1.932
 UNBOUND:                -1.932
  Name = CHEMBL421008
  16 active torsions:
  status: ('A' for Active; 'I' for Inactive)
    1  A    between atoms: C_1  and  C_2
    2  A    between atoms: C_2  and  C_3
    3  A    between atoms: C_3  and  C_4
    4  A    between atoms: C_4  and  C_5
    5  A    between atoms: C_5  and  C_6
    6  A    between atoms: C_6  and  C_7
    7  A    between atoms: C_7  and  C_8
    8  A    between atoms: C_8  and  C_9
    9  A    between atoms: N_11  and  C_12
   10  A    between atoms: C_12  and  C_13
   11  A    between atoms: C_16  and  O_17
   12  A    between atoms: O_17  and  C_18
   13  A    between atoms: C_18  and  C_19
   14  A    between atoms: C_19  and  N_20
   15  A    between atoms: C_21  and  O_22
   16  A    between atoms: O_22  and  C_23
                            x       y       z     vdW  Elec       q    Type
                         _______ _______ _______ _____ _____    ______ ____

>  <TORSDO>
F 14

>  <SCORE>
-5.272

>  <RMSD_LB>
8.919

>  <RMSD_UB>
12.085

$$$$
