CHEMBL1765649
 OpenBabel10172500483D

 17 17  0  0  1  0  0  0  0  0999 V2000
  134.8190  134.8050  155.5310 C   0  0  0  0  0  0  0  0  0  0  0  0
  135.8560  135.5890  156.0510 C   0  0  0  0  0  3  0  0  0  0  0  0
  136.7640  136.2470  155.2010 C   0  0  0  0  0  0  0  0  0  0  0  0
  136.5990  136.1340  153.8140 C   0  0  0  0  0  3  0  0  0  0  0  0
  135.5650  135.3590  153.2820 C   0  0  0  0  0  3  0  0  0  0  0  0
  134.6880  134.6980  154.1380 C   0  0  0  0  0  0  0  0  0  0  0  0
  133.7620  134.4840  157.6430 C   0  0  0  0  0  1  0  0  0  0  0  0
  133.8960  134.1220  156.2780 O   0  0  0  0  0  0  0  0  0  0  0  0
  133.6800  133.9350  153.6150 O   0  0  0  0  0  0  0  0  0  0  0  0
  132.8160  134.2900  153.5370 H   0  0  0  0  0  0  0  0  0  0  0  0
  137.8790  137.1030  155.7660 C   0  0  0  0  0  2  0  0  0  0  0  0
  138.5240  138.0470  154.7440 C   0  0  2  0  0  3  0  0  0  0  0  0
  139.9310  138.4500  155.1910 C   0  0  0  0  0  0  0  0  0  0  0  0
  140.5040  139.4840  154.8910 O   0  0  0  0  0  0  0  0  0  0  0  0
  140.4820  137.5010  155.9930 O   0  0  0  0  0  1  0  0  0  0  0  0
  137.7790  139.2700  154.5790 O   0  0  0  0  0  0  0  0  0  0  0  0
  137.7760  139.5220  153.6430 H   0  0  0  0  0  0  0  0  0  0  0  0
  1  2  1  0  0  0  0
  1  8  1  0  0  0  0
  3 11  1  0  0  0  0
  3  2  2  0  0  0  0
  4  3  1  0  0  0  0
  5  4  2  0  0  0  0
  5  6  1  0  0  0  0
  6  1  2  0  0  0  0
  8  7  1  0  0  0  0
  9  6  1  0  0  0  0
 10  9  1  0  0  0  0
 12 13  1  0  0  0  0
 12 11  1  1  0  0  0
 13 15  1  0  0  0  0
 14 13  2  0  0  0  0
 16 12  1  0  0  0  0
 17 16  1  0  0  0  0
M  END
>  <MODEL>
1

>  <REMARK>
 VINA RESULT:    -5.755      0.000      0.000
 INTER + INTRA:          -7.725
 INTER:                  -7.493
 INTRA:                  -0.232
 UNBOUND:                -0.288
  Name = CHEMBL1765649
  7 active torsions:
  status: ('A' for Active; 'I' for Inactive)
    1  A    between atoms: C_1  and  O_2
    2  A    between atoms: O_2  and  C_3
    3  A    between atoms: C_5  and  C_6
    4  A    between atoms: C_6  and  C_7
    5  A    between atoms: C_7  and  O_8
    6  A    between atoms: C_7  and  C_9
    7  A    between atoms: C_14  and  O_15
                            x       y       z     vdW  Elec       q    Type
                         _______ _______ _______ _____ _____    ______ ____

>  <TORSDO>
F 6

>  <SCORE>
-5.755

>  <RMSD_LB>
0.000

>  <RMSD_UB>
0.000

$$$$
CHEMBL1765649
 OpenBabel10172500483D

 17 17  0  0  1  0  0  0  0  0999 V2000
  133.3000  134.8090  148.2490 C   0  0  0  0  0  0  0  0  0  0  0  0
  133.8720  135.1560  149.4790 C   0  0  0  0  0  3  0  0  0  0  0  0
  134.3910  134.1710  150.3400 C   0  0  0  0  0  0  0  0  0  0  0  0
  134.3560  132.8290  149.9350 C   0  0  0  0  0  3  0  0  0  0  0  0
  133.7920  132.4720  148.7070 C   0  0  0  0  0  3  0  0  0  0  0  0
  133.2650  133.4580  147.8770 C   0  0  0  0  0  0  0  0  0  0  0  0
  132.7110  137.0620  147.7330 C   0  0  0  0  0  1  0  0  0  0  0  0
  132.7630  135.6960  147.3520 O   0  0  0  0  0  0  0  0  0  0  0  0
  132.7090  133.1040  146.6780 O   0  0  0  0  0  0  0  0  0  0  0  0
  132.6090  133.7440  146.0010 H   0  0  0  0  0  0  0  0  0  0  0  0
  135.0190  134.5480  151.6660 C   0  0  0  0  0  2  0  0  0  0  0  0
  134.0270  134.6160  152.8330 C   0  0  2  0  0  3  0  0  0  0  0  0
  134.5110  135.6030  153.8980 C   0  0  0  0  0  0  0  0  0  0  0  0
  133.9450  136.6330  154.2220 O   0  0  0  0  0  0  0  0  0  0  0  0
  135.6700  135.1800  154.4680 O   0  0  0  0  0  1  0  0  0  0  0  0
  133.8660  133.3440  153.4920 O   0  0  0  0  0  0  0  0  0  0  0  0
  133.4540  132.7140  152.8810 H   0  0  0  0  0  0  0  0  0  0  0  0
  1  2  1  0  0  0  0
  2  3  2  0  0  0  0
  3 11  1  0  0  0  0
  4  3  1  0  0  0  0
  5  4  2  0  0  0  0
  6  1  2  0  0  0  0
  6  5  1  0  0  0  0
  8  7  1  0  0  0  0
  8  1  1  0  0  0  0
  9  6  1  0  0  0  0
 10  9  1  0  0  0  0
 12 11  1  6  0  0  0
 12 16  1  0  0  0  0
 12 13  1  0  0  0  0
 13 14  2  0  0  0  0
 13 15  1  0  0  0  0
 17 16  1  0  0  0  0
M  END
>  <MODEL>
2

>  <REMARK>
 VINA RESULT:    -5.698      4.509      6.938
 INTER + INTRA:          -7.651
 INTER:                  -7.419
 INTRA:                  -0.232
 UNBOUND:                -0.288
  Name = CHEMBL1765649
  7 active torsions:
  status: ('A' for Active; 'I' for Inactive)
    1  A    between atoms: C_1  and  O_2
    2  A    between atoms: O_2  and  C_3
    3  A    between atoms: C_5  and  C_6
    4  A    between atoms: C_6  and  C_7
    5  A    between atoms: C_7  and  O_8
    6  A    between atoms: C_7  and  C_9
    7  A    between atoms: C_14  and  O_15
                            x       y       z     vdW  Elec       q    Type
                         _______ _______ _______ _____ _____    ______ ____

>  <TORSDO>
F 6

>  <SCORE>
-5.698

>  <RMSD_LB>
4.509

>  <RMSD_UB>
6.938

$$$$
CHEMBL1765649
 OpenBabel10172500483D

 17 17  0  0  1  0  0  0  0  0999 V2000
  135.3260  135.9160  154.0110 C   0  0  0  0  0  0  0  0  0  0  0  0
  136.4490  136.2890  154.7600 C   0  0  0  0  0  3  0  0  0  0  0  0
  136.5650  135.9360  156.1170 C   0  0  0  0  0  0  0  0  0  0  0  0
  135.5490  135.1720  156.7090 C   0  0  0  0  0  3  0  0  0  0  0  0
  134.4260  134.7890  155.9710 C   0  0  0  0  0  3  0  0  0  0  0  0
  134.3190  135.1650  154.6340 C   0  0  0  0  0  0  0  0  0  0  0  0
  136.2590  136.2440  151.8410 C   0  0  0  0  0  1  0  0  0  0  0  0
  135.1220  136.2200  152.6910 O   0  0  0  0  0  0  0  0  0  0  0  0
  133.2160  134.7930  153.9150 O   0  0  0  0  0  0  0  0  0  0  0  0
  133.3170  134.3300  153.1070 H   0  0  0  0  0  0  0  0  0  0  0  0
  137.7850  136.3320  156.9230 C   0  0  0  0  0  2  0  0  0  0  0  0
  137.6830  137.7150  157.5770 C   0  0  2  0  0  3  0  0  0  0  0  0
  137.3370  137.5890  159.0620 C   0  0  0  0  0  0  0  0  0  0  0  0
  136.9670  136.5710  159.6220 O   0  0  0  0  0  0  0  0  0  0  0  0
  137.5060  138.7740  159.7080 O   0  0  0  0  0  1  0  0  0  0  0  0
  136.6530  138.5290  156.9820 O   0  0  0  0  0  0  0  0  0  0  0  0
  135.7840  138.1470  157.1810 H   0  0  0  0  0  0  0  0  0  0  0  0
  1  6  2  0  0  0  0
  1  2  1  0  0  0  0
  2  3  2  0  0  0  0
  3  4  1  0  0  0  0
  3 11  1  0  0  0  0
  5  4  2  0  0  0  0
  6  5  1  0  0  0  0
  7  8  1  0  0  0  0
  8  1  1  0  0  0  0
  9  6  1  0  0  0  0
 10  9  1  0  0  0  0
 12 11  1  6  0  0  0
 12 13  1  0  0  0  0
 13 14  2  0  0  0  0
 13 15  1  0  0  0  0
 16 17  1  0  0  0  0
 16 12  1  0  0  0  0
M  END
>  <MODEL>
3

>  <REMARK>
 VINA RESULT:    -5.651      2.467      3.637
 INTER + INTRA:          -7.591
 INTER:                  -7.420
 INTRA:                  -0.171
 UNBOUND:                -0.288
  Name = CHEMBL1765649
  7 active torsions:
  status: ('A' for Active; 'I' for Inactive)
    1  A    between atoms: C_1  and  O_2
    2  A    between atoms: O_2  and  C_3
    3  A    between atoms: C_5  and  C_6
    4  A    between atoms: C_6  and  C_7
    5  A    between atoms: C_7  and  O_8
    6  A    between atoms: C_7  and  C_9
    7  A    between atoms: C_14  and  O_15
                            x       y       z     vdW  Elec       q    Type
                         _______ _______ _______ _____ _____    ______ ____

>  <TORSDO>
F 6

>  <SCORE>
-5.651

>  <RMSD_LB>
2.467

>  <RMSD_UB>
3.637

$$$$
CHEMBL1765649
 OpenBabel10172500483D

 17 17  0  0  1  0  0  0  0  0999 V2000
  136.5590  136.4210  158.4110 C   0  0  0  0  0  0  0  0  0  0  0  0
  136.1590  135.8420  157.2010 C   0  0  0  0  0  3  0  0  0  0  0  0
  136.7210  136.2560  155.9790 C   0  0  0  0  0  0  0  0  0  0  0  0
  137.7190  137.2410  155.9900 C   0  0  0  0  0  3  0  0  0  0  0  0
  138.1300  137.8220  157.1920 C   0  0  0  0  0  3  0  0  0  0  0  0
  137.5480  137.4160  158.3900 C   0  0  0  0  0  0  0  0  0  0  0  0
  134.6560  136.1540  159.8240 C   0  0  0  0  0  1  0  0  0  0  0  0
  136.0630  136.0910  159.6450 O   0  0  0  0  0  0  0  0  0  0  0  0
  137.9490  137.9900  159.5650 O   0  0  0  0  0  0  0  0  0  0  0  0
  138.0780  137.4600  160.3260 H   0  0  0  0  0  0  0  0  0  0  0  0
  136.2950  135.6210  154.6710 C   0  0  0  0  0  2  0  0  0  0  0  0
  134.7800  135.4310  154.5310 C   0  0  2  0  0  3  0  0  0  0  0  0
  134.4550  134.0320  154.0010 C   0  0  0  0  0  0  0  0  0  0  0  0
  134.1960  133.0560  154.6840 O   0  0  0  0  0  1  0  0  0  0  0  0
  134.4790  134.0050  152.6420 O   0  0  0  0  0  0  0  0  0  0  0  0
  134.1920  136.3680  153.6070 O   0  0  0  0  0  0  0  0  0  0  0  0
  134.8560  137.0260  153.3490 H   0  0  0  0  0  0  0  0  0  0  0  0
  1  8  1  0  0  0  0
  2  1  2  0  0  0  0
  3  4  2  0  0  0  0
  3  2  1  0  0  0  0
  4  5  1  0  0  0  0
  5  6  2  0  0  0  0
  6  1  1  0  0  0  0
  6  9  1  0  0  0  0
  8  7  1  0  0  0  0
  9 10  1  0  0  0  0
 11  3  1  0  0  0  0
 12 11  1  6  0  0  0
 13 12  1  0  0  0  0
 13 14  1  0  0  0  0
 15 13  2  0  0  0  0
 16 12  1  0  0  0  0
 17 16  1  0  0  0  0
M  END
>  <MODEL>
4

>  <REMARK>
 VINA RESULT:    -5.407      2.612      5.315
 INTER + INTRA:          -7.276
 INTER:                  -7.016
 INTRA:                  -0.260
 UNBOUND:                -0.288
  Name = CHEMBL1765649
  7 active torsions:
  status: ('A' for Active; 'I' for Inactive)
    1  A    between atoms: C_1  and  O_2
    2  A    between atoms: O_2  and  C_3
    3  A    between atoms: C_5  and  C_6
    4  A    between atoms: C_6  and  C_7
    5  A    between atoms: C_7  and  O_8
    6  A    between atoms: C_7  and  C_9
    7  A    between atoms: C_14  and  O_15
                            x       y       z     vdW  Elec       q    Type
                         _______ _______ _______ _____ _____    ______ ____

>  <TORSDO>
F 6

>  <SCORE>
-5.407

>  <RMSD_LB>
2.612

>  <RMSD_UB>
5.315

$$$$
CHEMBL1765649
 OpenBabel10172500483D

 17 17  0  0  1  0  0  0  0  0999 V2000
  139.0340  138.4810  152.8610 C   0  0  0  0  0  0  0  0  0  0  0  0
  138.0750  137.5300  152.4920 C   0  0  0  0  0  3  0  0  0  0  0  0
  137.2150  136.9590  153.4480 C   0  0  0  0  0  0  0  0  0  0  0  0
  137.3090  137.3790  154.7820 C   0  0  0  0  0  3  0  0  0  0  0  0
  138.2590  138.3300  155.1620 C   0  0  0  0  0  3  0  0  0  0  0  0
  139.1150  138.8700  154.2060 C   0  0  0  0  0  0  0  0  0  0  0  0
  139.3830  139.7260  150.8580 C   0  0  0  0  0  1  0  0  0  0  0  0
  139.9180  139.0830  152.0040 O   0  0  0  0  0  0  0  0  0  0  0  0
  140.0470  139.7980  154.5820 O   0  0  0  0  0  0  0  0  0  0  0  0
  140.6820  139.5870  155.2380 H   0  0  0  0  0  0  0  0  0  0  0  0
  136.1710  135.9380  153.0450 C   0  0  0  0  0  2  0  0  0  0  0  0
  135.1060  135.6740  154.1160 C   0  0  2  0  0  3  0  0  0  0  0  0
  134.5280  134.2640  153.9700 C   0  0  0  0  0  0  0  0  0  0  0  0
  134.2330  133.5190  154.8890 O   0  0  0  0  0  1  0  0  0  0  0  0
  134.3670  133.9330  152.6620 O   0  0  0  0  0  0  0  0  0  0  0  0
  133.9940  136.5860  154.0210 O   0  0  0  0  0  0  0  0  0  0  0  0
  134.2540  137.4500  154.3780 H   0  0  0  0  0  0  0  0  0  0  0  0
  1  6  1  0  0  0  0
  2  1  2  0  0  0  0
  2  3  1  0  0  0  0
  3  4  2  0  0  0  0
  4  5  1  0  0  0  0
  6  9  1  0  0  0  0
  6  5  2  0  0  0  0
  7  8  1  0  0  0  0
  8  1  1  0  0  0  0
  9 10  1  0  0  0  0
 11  3  1  0  0  0  0
 12 11  1  6  0  0  0
 13 12  1  0  0  0  0
 13 14  1  0  0  0  0
 15 13  2  0  0  0  0
 16 12  1  0  0  0  0
 16 17  1  0  0  0  0
M  END
>  <MODEL>
5

>  <REMARK>
 VINA RESULT:    -5.358      1.905      6.423
 INTER + INTRA:          -7.211
 INTER:                  -6.964
 INTRA:                  -0.247
 UNBOUND:                -0.288
  Name = CHEMBL1765649
  7 active torsions:
  status: ('A' for Active; 'I' for Inactive)
    1  A    between atoms: C_1  and  O_2
    2  A    between atoms: O_2  and  C_3
    3  A    between atoms: C_5  and  C_6
    4  A    between atoms: C_6  and  C_7
    5  A    between atoms: C_7  and  O_8
    6  A    between atoms: C_7  and  C_9
    7  A    between atoms: C_14  and  O_15
                            x       y       z     vdW  Elec       q    Type
                         _______ _______ _______ _____ _____    ______ ____

>  <TORSDO>
F 6

>  <SCORE>
-5.358

>  <RMSD_LB>
1.905

>  <RMSD_UB>
6.423

$$$$
CHEMBL1765649
 OpenBabel10172500483D

 17 17  0  0  1  0  0  0  0  0999 V2000
  134.3450  132.9040  147.7430 C   0  0  0  0  0  0  0  0  0  0  0  0
  134.3210  132.6810  149.1260 C   0  0  0  0  0  3  0  0  0  0  0  0
  133.6270  133.5490  149.9880 C   0  0  0  0  0  0  0  0  0  0  0  0
  132.9260  134.6320  149.4400 C   0  0  0  0  0  3  0  0  0  0  0  0
  132.9370  134.8620  148.0620 C   0  0  0  0  0  3  0  0  0  0  0  0
  133.6470  134.0050  147.2250 C   0  0  0  0  0  0  0  0  0  0  0  0
  136.3990  132.3080  146.6900 C   0  0  0  0  0  1  0  0  0  0  0  0
  134.9990  132.1200  146.8290 O   0  0  0  0  0  0  0  0  0  0  0  0
  133.6600  134.2350  145.8770 O   0  0  0  0  0  0  0  0  0  0  0  0
  134.2990  133.8150  145.3360 H   0  0  0  0  0  0  0  0  0  0  0  0
  133.5940  133.3000  151.4820 C   0  0  0  0  0  2  0  0  0  0  0  0
  134.6550  134.0780  152.2700 C   0  0  2  0  0  3  0  0  0  0  0  0
  134.0250  135.2680  152.9980 C   0  0  0  0  0  0  0  0  0  0  0  0
  134.0300  136.4230  152.6080 O   0  0  0  0  0  0  0  0  0  0  0  0
  133.4330  134.8760  154.1570 O   0  0  0  0  0  1  0  0  0  0  0  0
  135.6870  134.6150  151.4200 O   0  0  0  0  0  0  0  0  0  0  0  0
  135.6670  134.1620  150.5630 H   0  0  0  0  0  0  0  0  0  0  0  0
  1  2  1  0  0  0  0
  2  3  2  0  0  0  0
  3 11  1  0  0  0  0
  4  3  1  0  0  0  0
  5  4  2  0  0  0  0
  6  1  2  0  0  0  0
  6  5  1  0  0  0  0
  7  8  1  0  0  0  0
  8  1  1  0  0  0  0
  9  6  1  0  0  0  0
 10  9  1  0  0  0  0
 12 11  1  6  0  0  0
 12 13  1  0  0  0  0
 13 15  1  0  0  0  0
 14 13  2  0  0  0  0
 16 12  1  0  0  0  0
 17 16  1  0  0  0  0
M  END
>  <MODEL>
6

>  <REMARK>
 VINA RESULT:    -5.328      5.027      7.584
 INTER + INTRA:          -7.173
 INTER:                  -6.970
 INTRA:                  -0.203
 UNBOUND:                -0.288
  Name = CHEMBL1765649
  7 active torsions:
  status: ('A' for Active; 'I' for Inactive)
    1  A    between atoms: C_1  and  O_2
    2  A    between atoms: O_2  and  C_3
    3  A    between atoms: C_5  and  C_6
    4  A    between atoms: C_6  and  C_7
    5  A    between atoms: C_7  and  O_8
    6  A    between atoms: C_7  and  C_9
    7  A    between atoms: C_14  and  O_15
                            x       y       z     vdW  Elec       q    Type
                         _______ _______ _______ _____ _____    ______ ____

>  <TORSDO>
F 6

>  <SCORE>
-5.328

>  <RMSD_LB>
5.027

>  <RMSD_UB>
7.584

$$$$
CHEMBL1765649
 OpenBabel10172500483D

 17 17  0  0  1  0  0  0  0  0999 V2000
  137.7580  137.7890  155.5920 C   0  0  0  0  0  0  0  0  0  0  0  0
  137.1700  137.0230  154.5780 C   0  0  0  0  0  3  0  0  0  0  0  0
  136.3780  135.9010  154.8840 C   0  0  0  0  0  0  0  0  0  0  0  0
  136.1560  135.5740  156.2290 C   0  0  0  0  0  3  0  0  0  0  0  0
  136.7330  136.3340  157.2500 C   0  0  0  0  0  3  0  0  0  0  0  0
  137.5300  137.4290  156.9280 C   0  0  0  0  0  0  0  0  0  0  0  0
  139.2560  138.9710  154.1620 C   0  0  0  0  0  1  0  0  0  0  0  0
  138.5490  138.8900  155.3900 O   0  0  0  0  0  0  0  0  0  0  0  0
  138.0970  138.1690  157.9290 O   0  0  0  0  0  0  0  0  0  0  0  0
  137.5660  138.7350  158.4530 H   0  0  0  0  0  0  0  0  0  0  0  0
  135.7350  135.0790  153.7860 C   0  0  0  0  0  2  0  0  0  0  0  0
  134.2970  135.4930  153.4540 C   0  0  2  0  0  3  0  0  0  0  0  0
  134.1450  135.7700  151.9560 C   0  0  0  0  0  0  0  0  0  0  0  0
  133.1380  135.5770  151.2960 O   0  0  0  0  0  0  0  0  0  0  0  0
  135.2900  136.2820  151.4330 O   0  0  0  0  0  1  0  0  0  0  0  0
  133.9000  136.6980  154.1380 O   0  0  0  0  0  0  0  0  0  0  0  0
  134.4750  136.8370  154.9060 H   0  0  0  0  0  0  0  0  0  0  0  0
  1  6  1  0  0  0  0
  2  3  1  0  0  0  0
  2  1  2  0  0  0  0
  3  4  2  0  0  0  0
  4  5  1  0  0  0  0
  6  5  2  0  0  0  0
  6  9  1  0  0  0  0
  7  8  1  0  0  0  0
  8  1  1  0  0  0  0
  9 10  1  0  0  0  0
 11  3  1  0  0  0  0
 12 11  1  6  0  0  0
 12 16  1  0  0  0  0
 13 12  1  0  0  0  0
 14 13  2  0  0  0  0
 15 13  1  0  0  0  0
 16 17  1  0  0  0  0
M  END
>  <MODEL>
7

>  <REMARK>
 VINA RESULT:    -5.274      1.902      5.649
 INTER + INTRA:          -7.104
 INTER:                  -6.933
 INTRA:                  -0.171
 UNBOUND:                -0.288
  Name = CHEMBL1765649
  7 active torsions:
  status: ('A' for Active; 'I' for Inactive)
    1  A    between atoms: C_1  and  O_2
    2  A    between atoms: O_2  and  C_3
    3  A    between atoms: C_5  and  C_6
    4  A    between atoms: C_6  and  C_7
    5  A    between atoms: C_7  and  O_8
    6  A    between atoms: C_7  and  C_9
    7  A    between atoms: C_14  and  O_15
                            x       y       z     vdW  Elec       q    Type
                         _______ _______ _______ _____ _____    ______ ____

>  <TORSDO>
F 6

>  <SCORE>
-5.274

>  <RMSD_LB>
1.902

>  <RMSD_UB>
5.649

$$$$
CHEMBL1765649
 OpenBabel10172500483D

 17 17  0  0  1  0  0  0  0  0999 V2000
  147.7860  142.0540  151.7060 C   0  0  0  0  0  0  0  0  0  0  0  0
  146.6270  141.5330  152.2940 C   0  0  0  0  0  3  0  0  0  0  0  0
  146.6470  141.0240  153.6060 C   0  0  0  0  0  0  0  0  0  0  0  0
  147.8430  141.0740  154.3360 C   0  0  0  0  0  3  0  0  0  0  0  0
  149.0040  141.5960  153.7610 C   0  0  0  0  0  3  0  0  0  0  0  0
  148.9720  142.0770  152.4550 C   0  0  0  0  0  0  0  0  0  0  0  0
  146.6560  142.6860  149.7030 C   0  0  0  0  0  1  0  0  0  0  0  0
  147.8660  142.5610  150.4350 O   0  0  0  0  0  0  0  0  0  0  0  0
  150.1120  142.5830  151.8930 O   0  0  0  0  0  0  0  0  0  0  0  0
  150.4680  142.1920  151.1190 H   0  0  0  0  0  0  0  0  0  0  0  0
  145.3900  140.4700  154.2450 C   0  0  0  0  0  2  0  0  0  0  0  0
  144.8890  139.1660  153.6140 C   0  0  2  0  0  3  0  0  0  0  0  0
  143.4690  139.3370  153.0690 C   0  0  0  0  0  0  0  0  0  0  0  0
  142.4450  138.9810  153.6280 O   0  0  0  0  0  1  0  0  0  0  0  0
  143.4790  139.9600  151.8610 O   0  0  0  0  0  0  0  0  0  0  0  0
  144.8380  138.0810  154.5620 O   0  0  0  0  0  0  0  0  0  0  0  0
  144.9500  138.4310  155.4590 H   0  0  0  0  0  0  0  0  0  0  0  0
  1  2  2  0  0  0  0
  1  6  1  0  0  0  0
  2  3  1  0  0  0  0
  3 11  1  0  0  0  0
  3  4  2  0  0  0  0
  5  4  1  0  0  0  0
  6  5  2  0  0  0  0
  7  8  1  0  0  0  0
  8  1  1  0  0  0  0
  9  6  1  0  0  0  0
 10  9  1  0  0  0  0
 12 11  1  1  0  0  0
 12 16  1  0  0  0  0
 13 12  1  0  0  0  0
 13 14  1  0  0  0  0
 15 13  2  0  0  0  0
 16 17  1  0  0  0  0
M  END
>  <MODEL>
8

>  <REMARK>
 VINA RESULT:    -5.080      7.968     12.438
 INTER + INTRA:          -6.852
 INTER:                  -6.564
 INTRA:                  -0.288
 UNBOUND:                -0.288
  Name = CHEMBL1765649
  7 active torsions:
  status: ('A' for Active; 'I' for Inactive)
    1  A    between atoms: C_1  and  O_2
    2  A    between atoms: O_2  and  C_3
    3  A    between atoms: C_5  and  C_6
    4  A    between atoms: C_6  and  C_7
    5  A    between atoms: C_7  and  O_8
    6  A    between atoms: C_7  and  C_9
    7  A    between atoms: C_14  and  O_15
                            x       y       z     vdW  Elec       q    Type
                         _______ _______ _______ _____ _____    ______ ____

>  <TORSDO>
F 6

>  <SCORE>
-5.080

>  <RMSD_LB>
7.968

>  <RMSD_UB>
12.438

$$$$
CHEMBL1765649
 OpenBabel10172500483D

 17 17  0  0  1  0  0  0  0  0999 V2000
  139.8150  138.2240  154.5980 C   0  0  0  0  0  0  0  0  0  0  0  0
  141.2120  138.1260  154.5680 C   0  0  0  0  0  3  0  0  0  0  0  0
  141.8900  137.8100  153.3770 C   0  0  0  0  0  0  0  0  0  0  0  0
  141.1480  137.6230  152.2030 C   0  0  0  0  0  3  0  0  0  0  0  0
  139.7550  137.7230  152.2190 C   0  0  0  0  0  3  0  0  0  0  0  0
  139.0980  138.0170  153.4110 C   0  0  0  0  0  0  0  0  0  0  0  0
  139.0740  137.5740  156.7700 C   0  0  0  0  0  1  0  0  0  0  0  0
  139.0690  138.5180  155.7100 O   0  0  0  0  0  0  0  0  0  0  0  0
  137.7330  138.1110  153.4250 O   0  0  0  0  0  0  0  0  0  0  0  0
  137.2350  137.6020  154.0340 H   0  0  0  0  0  0  0  0  0  0  0  0
  143.4020  137.7140  153.3440 C   0  0  0  0  0  2  0  0  0  0  0  0
  144.1210  138.9460  153.9050 C   0  0  2  0  0  3  0  0  0  0  0  0
  144.9260  139.6500  152.8100 C   0  0  0  0  0  0  0  0  0  0  0  0
  146.1420  139.6760  152.7260 O   0  0  0  0  0  1  0  0  0  0  0  0
  144.1050  140.2500  151.9070 O   0  0  0  0  0  0  0  0  0  0  0  0
  145.0540  138.6090  154.9500 O   0  0  0  0  0  0  0  0  0  0  0  0
  145.9520  138.8500  154.6710 H   0  0  0  0  0  0  0  0  0  0  0  0
  1  8  1  0  0  0  0
  2  1  1  0  0  0  0
  3  2  2  0  0  0  0
  4  5  2  0  0  0  0
  4  3  1  0  0  0  0
  5  6  1  0  0  0  0
  6  9  1  0  0  0  0
  6  1  2  0  0  0  0
  8  7  1  0  0  0  0
  9 10  1  0  0  0  0
 11  3  1  0  0  0  0
 12 11  1  6  0  0  0
 12 16  1  0  0  0  0
 13 12  1  0  0  0  0
 14 13  1  0  0  0  0
 15 13  2  0  0  0  0
 17 16  1  0  0  0  0
M  END
>  <MODEL>
9

>  <REMARK>
 VINA RESULT:    -5.049      3.980      5.975
 INTER + INTRA:          -6.812
 INTER:                  -6.511
 INTRA:                  -0.301
 UNBOUND:                -0.288
  Name = CHEMBL1765649
  7 active torsions:
  status: ('A' for Active; 'I' for Inactive)
    1  A    between atoms: C_1  and  O_2
    2  A    between atoms: O_2  and  C_3
    3  A    between atoms: C_5  and  C_6
    4  A    between atoms: C_6  and  C_7
    5  A    between atoms: C_7  and  O_8
    6  A    between atoms: C_7  and  C_9
    7  A    between atoms: C_14  and  O_15
                            x       y       z     vdW  Elec       q    Type
                         _______ _______ _______ _____ _____    ______ ____

>  <TORSDO>
F 6

>  <SCORE>
-5.049

>  <RMSD_LB>
3.980

>  <RMSD_UB>
5.975

$$$$
