CHEMBL187993
 OpenBabel10172500083D

 24 24  0  0  0  0  0  0  0  0999 V2000
  144.1910  138.1810  150.8200 C   0  0  0  0  0  0  0  0  0  0  0  0
  144.7000  137.1630  151.2780 O   0  0  0  0  0  0  0  0  0  0  0  0
  142.8330  138.3400  150.6830 N   0  0  0  0  0  0  0  0  0  0  0  0
  142.4750  139.1910  150.3400 H   0  0  0  0  0  0  0  0  0  0  0  0
  145.0110  139.3910  150.4160 C   0  0  0  0  0  2  0  0  0  0  0  0
  144.2880  140.6800  150.8090 C   0  0  0  0  0  2  0  0  0  0  0  0
  145.2270  141.8840  150.8500 C   0  0  0  0  0  2  0  0  0  0  0  0
  146.5180  141.5340  151.5930 C   0  0  0  0  0  2  0  0  0  0  0  0
  146.5590  142.1730  152.9810 C   0  0  0  0  0  2  0  0  0  0  0  0
  147.3080  141.2840  153.9750 C   0  0  0  0  0  2  0  0  0  0  0  0
  149.5700  142.1040  153.2350 C   0  0  0  0  0  1  0  0  0  0  0  0
  148.6230  141.9260  154.4110 C   0  0  0  0  0  2  0  0  0  0  0  0
  141.9210  137.2720  151.0370 C   0  0  0  0  0  2  0  0  0  0  0  0
  140.8370  137.7270  151.9810 C   0  0  0  0  0  0  0  0  0  0  0  0
  141.1860  138.3540  153.1930 C   0  0  0  0  0  3  0  0  0  0  0  0
  140.2270  138.7880  154.1340 C   0  0  0  0  0  0  0  0  0  0  0  0
  138.8840  138.5720  153.8400 C   0  0  0  0  0  0  0  0  0  0  0  0
  138.5190  137.9510  152.6390 C   0  0  0  0  0  3  0  0  0  0  0  0
  139.4800  137.5330  151.7170 C   0  0  0  0  0  0  0  0  0  0  0  0
  138.9210  136.7870  150.2640 Cl  0  0  0  0  0  0  0  0  0  0  0  0
  140.8190  139.3660  155.2210 O   0  0  0  0  0  0  0  0  0  0  0  0
  142.2190  139.5410  155.2950 C   0  0  0  0  0  1  0  0  0  0  0  0
  137.8000  138.8960  154.6060 O   0  0  0  0  0  0  0  0  0  0  0  0
  137.6030  139.7950  154.7820 H   0  0  0  0  0  0  0  0  0  0  0  0
  1  2  2  0  0  0  0
  3  1  1  0  0  0  0
  3 13  1  0  0  0  0
  4  3  1  0  0  0  0
  5  6  1  0  0  0  0
  5  1  1  0  0  0  0
  6  7  1  0  0  0  0
  7  8  1  0  0  0  0
  8  9  1  0  0  0  0
  9 10  1  0  0  0  0
 10 12  1  0  0  0  0
 11 12  1  0  0  0  0
 13 14  1  0  0  0  0
 14 15  1  0  0  0  0
 15 16  2  0  0  0  0
 16 21  1  0  0  0  0
 17 16  1  0  0  0  0
 17 23  1  0  0  0  0
 18 17  2  0  0  0  0
 19 14  2  0  0  0  0
 19 18  1  0  0  0  0
 20 19  1  0  0  0  0
 21 22  1  0  0  0  0
 23 24  1  0  0  0  0
M  END
>  <MODEL>
1

>  <REMARK>
 VINA RESULT:    -6.231      0.000      0.000
 INTER + INTRA:         -10.814
 INTER:                 -10.038
 INTRA:                  -0.776
 UNBOUND:                -0.759
  Name = CHEMBL187993
  13 active torsions:
  status: ('A' for Active; 'I' for Inactive)
    1  A    between atoms: C_1  and  C_2
    2  A    between atoms: C_2  and  C_3
    3  A    between atoms: C_3  and  C_4
    4  A    between atoms: C_4  and  C_5
    5  A    between atoms: C_5  and  C_6
    6  A    between atoms: C_6  and  C_7
    7  A    between atoms: C_7  and  C_8
    8  A    between atoms: C_8  and  C_9
    9  A    between atoms: N_11  and  C_12
   10  A    between atoms: C_12  and  C_13
   11  A    between atoms: C_15  and  O_16
   12  A    between atoms: O_16  and  C_17
   13  A    between atoms: C_18  and  O_19
                            x       y       z     vdW  Elec       q    Type
                         _______ _______ _______ _____ _____    ______ ____

>  <TORSDO>
F 11

>  <SCORE>
-6.231

>  <RMSD_LB>
0.000

>  <RMSD_UB>
0.000

$$$$
CHEMBL187993
 OpenBabel10172500083D

 24 24  0  0  0  0  0  0  0  0999 V2000
  145.5310  138.1850  150.0300 C   0  0  0  0  0  0  0  0  0  0  0  0
  145.0530  137.0560  149.9970 O   0  0  0  0  0  0  0  0  0  0  0  0
  146.7110  138.4780  150.6720 N   0  0  0  0  0  0  0  0  0  0  0  0
  147.0680  139.3950  150.6400 H   0  0  0  0  0  0  0  0  0  0  0  0
  144.8980  139.3610  149.3100 C   0  0  0  0  0  2  0  0  0  0  0  0
  145.9160  140.0340  148.3900 C   0  0  0  0  0  2  0  0  0  0  0  0
  146.3730  141.3910  148.9230 C   0  0  0  0  0  2  0  0  0  0  0  0
  145.5680  141.7790  150.1650 C   0  0  0  0  0  2  0  0  0  0  0  0
  146.3770  142.6750  151.1020 C   0  0  0  0  0  2  0  0  0  0  0  0
  146.2620  142.2020  152.5520 C   0  0  0  0  0  2  0  0  0  0  0  0
  148.7240  141.9310  152.1000 C   0  0  0  0  0  1  0  0  0  0  0  0
  147.5790  141.6080  153.0470 C   0  0  0  0  0  2  0  0  0  0  0  0
  147.4350  137.4540  151.3960 C   0  0  0  0  0  2  0  0  0  0  0  0
  147.4680  137.7130  152.8810 C   0  0  0  0  0  0  0  0  0  0  0  0
  146.3090  138.1760  153.5350 C   0  0  0  0  0  3  0  0  0  0  0  0
  146.2720  138.4600  154.9170 C   0  0  0  0  0  0  0  0  0  0  0  0
  147.4400  138.2770  155.6500 C   0  0  0  0  0  0  0  0  0  0  0  0
  148.6020  137.8150  155.0170 C   0  0  0  0  0  3  0  0  0  0  0  0
  148.6200  137.5350  153.6510 C   0  0  0  0  0  0  0  0  0  0  0  0
  150.1010  136.9620  152.9730 Cl  0  0  0  0  0  0  0  0  0  0  0  0
  145.0350  138.8900  155.3060 O   0  0  0  0  0  0  0  0  0  0  0  0
  144.2670  139.7600  154.4990 C   0  0  0  0  0  1  0  0  0  0  0  0
  147.6320  138.4990  156.9850 O   0  0  0  0  0  0  0  0  0  0  0  0
  148.0180  139.3020  157.2760 H   0  0  0  0  0  0  0  0  0  0  0  0
  1  3  1  0  0  0  0
  2  1  2  0  0  0  0
  3 13  1  0  0  0  0
  4  3  1  0  0  0  0
  5  1  1  0  0  0  0
  6  7  1  0  0  0  0
  6  5  1  0  0  0  0
  7  8  1  0  0  0  0
  8  9  1  0  0  0  0
  9 10  1  0  0  0  0
 10 12  1  0  0  0  0
 11 12  1  0  0  0  0
 13 14  1  0  0  0  0
 14 15  2  0  0  0  0
 14 19  1  0  0  0  0
 15 16  1  0  0  0  0
 16 21  1  0  0  0  0
 16 17  2  0  0  0  0
 17 23  1  0  0  0  0
 18 17  1  0  0  0  0
 19 18  2  0  0  0  0
 20 19  1  0  0  0  0
 22 21  1  0  0  0  0
 23 24  1  0  0  0  0
M  END
>  <MODEL>
2

>  <REMARK>
 VINA RESULT:    -6.046      4.339      5.715
 INTER + INTRA:         -10.516
 INTER:                  -9.124
 INTRA:                  -1.392
 UNBOUND:                -0.759
  Name = CHEMBL187993
  13 active torsions:
  status: ('A' for Active; 'I' for Inactive)
    1  A    between atoms: C_1  and  C_2
    2  A    between atoms: C_2  and  C_3
    3  A    between atoms: C_3  and  C_4
    4  A    between atoms: C_4  and  C_5
    5  A    between atoms: C_5  and  C_6
    6  A    between atoms: C_6  and  C_7
    7  A    between atoms: C_7  and  C_8
    8  A    between atoms: C_8  and  C_9
    9  A    between atoms: N_11  and  C_12
   10  A    between atoms: C_12  and  C_13
   11  A    between atoms: C_15  and  O_16
   12  A    between atoms: O_16  and  C_17
   13  A    between atoms: C_18  and  O_19
                            x       y       z     vdW  Elec       q    Type
                         _______ _______ _______ _____ _____    ______ ____

>  <TORSDO>
F 11

>  <SCORE>
-6.046

>  <RMSD_LB>
4.339

>  <RMSD_UB>
5.715

$$$$
CHEMBL187993
 OpenBabel10172500083D

 24 24  0  0  0  0  0  0  0  0999 V2000
  139.9650  138.3950  154.4320 C   0  0  0  0  0  0  0  0  0  0  0  0
  140.2780  138.7560  155.5630 O   0  0  0  0  0  0  0  0  0  0  0  0
  138.7950  137.7270  154.1590 N   0  0  0  0  0  0  0  0  0  0  0  0
  138.5780  137.4890  153.2290 H   0  0  0  0  0  0  0  0  0  0  0  0
  140.8120  138.7060  153.2130 C   0  0  0  0  0  2  0  0  0  0  0  0
  141.9090  137.6550  153.0430 C   0  0  0  0  0  2  0  0  0  0  0  0
  142.1220  137.2680  151.5810 C   0  0  0  0  0  2  0  0  0  0  0  0
  140.7790  137.1440  150.8570 C   0  0  0  0  0  2  0  0  0  0  0  0
  140.8980  137.5320  149.3830 C   0  0  0  0  0  2  0  0  0  0  0  0
  139.9410  138.6730  149.0350 C   0  0  0  0  0  2  0  0  0  0  0  0
  139.3950  140.7260  150.3860 C   0  0  0  0  0  1  0  0  0  0  0  0
  140.4560  140.0100  149.5650 C   0  0  0  0  0  2  0  0  0  0  0  0
  137.8810  137.3670  155.2230 C   0  0  0  0  0  2  0  0  0  0  0  0
  136.7990  136.4240  154.7590 C   0  0  0  0  0  0  0  0  0  0  0  0
  136.5170  136.3090  153.3830 C   0  0  0  0  0  3  0  0  0  0  0  0
  135.5060  135.4630  152.8780 C   0  0  0  0  0  0  0  0  0  0  0  0
  134.7600  134.7250  153.7910 C   0  0  0  0  0  0  0  0  0  0  0  0
  135.0280  134.8260  155.1620 C   0  0  0  0  0  3  0  0  0  0  0  0
  136.0340  135.6630  155.6450 C   0  0  0  0  0  0  0  0  0  0  0  0
  136.2870  135.7060  157.3520 Cl  0  0  0  0  0  0  0  0  0  0  0  0
  135.4340  135.5290  151.5150 O   0  0  0  0  0  0  0  0  0  0  0  0
  136.2780  136.3840  150.7700 C   0  0  0  0  0  1  0  0  0  0  0  0
  133.7350  133.8610  153.5260 O   0  0  0  0  0  0  0  0  0  0  0  0
  133.0690  134.0980  152.9100 H   0  0  0  0  0  0  0  0  0  0  0  0
  1  2  2  0  0  0  0
  3  1  1  0  0  0  0
  3 13  1  0  0  0  0
  4  3  1  0  0  0  0
  5  1  1  0  0  0  0
  6  5  1  0  0  0  0
  7  6  1  0  0  0  0
  8  7  1  0  0  0  0
  9  8  1  0  0  0  0
 10  9  1  0  0  0  0
 10 12  1  0  0  0  0
 12 11  1  0  0  0  0
 14 13  1  0  0  0  0
 14 19  1  0  0  0  0
 15 14  2  0  0  0  0
 16 15  1  0  0  0  0
 16 17  2  0  0  0  0
 17 18  1  0  0  0  0
 18 19  2  0  0  0  0
 19 20  1  0  0  0  0
 21 16  1  0  0  0  0
 22 21  1  0  0  0  0
 23 17  1  0  0  0  0
 24 23  1  0  0  0  0
M  END
>  <MODEL>
3

>  <REMARK>
 VINA RESULT:    -5.927      4.698      6.828
 INTER + INTRA:         -10.323
 INTER:                  -9.203
 INTRA:                  -1.120
 UNBOUND:                -0.759
  Name = CHEMBL187993
  13 active torsions:
  status: ('A' for Active; 'I' for Inactive)
    1  A    between atoms: C_1  and  C_2
    2  A    between atoms: C_2  and  C_3
    3  A    between atoms: C_3  and  C_4
    4  A    between atoms: C_4  and  C_5
    5  A    between atoms: C_5  and  C_6
    6  A    between atoms: C_6  and  C_7
    7  A    between atoms: C_7  and  C_8
    8  A    between atoms: C_8  and  C_9
    9  A    between atoms: N_11  and  C_12
   10  A    between atoms: C_12  and  C_13
   11  A    between atoms: C_15  and  O_16
   12  A    between atoms: O_16  and  C_17
   13  A    between atoms: C_18  and  O_19
                            x       y       z     vdW  Elec       q    Type
                         _______ _______ _______ _____ _____    ______ ____

>  <TORSDO>
F 11

>  <SCORE>
-5.927

>  <RMSD_LB>
4.698

>  <RMSD_UB>
6.828

$$$$
CHEMBL187993
 OpenBabel10172500083D

 24 24  0  0  0  0  0  0  0  0999 V2000
  142.9550  139.1560  149.8480 C   0  0  0  0  0  0  0  0  0  0  0  0
  142.3660  139.9880  149.1650 O   0  0  0  0  0  0  0  0  0  0  0  0
  143.9510  139.4900  150.7360 N   0  0  0  0  0  0  0  0  0  0  0  0
  144.3690  138.7880  151.2840 H   0  0  0  0  0  0  0  0  0  0  0  0
  142.6010  137.6820  149.8250 C   0  0  0  0  0  2  0  0  0  0  0  0
  141.1500  137.4750  150.2570 C   0  0  0  0  0  2  0  0  0  0  0  0
  141.0040  137.3670  151.7740 C   0  0  0  0  0  2  0  0  0  0  0  0
  140.0090  138.4070  152.2940 C   0  0  0  0  0  2  0  0  0  0  0  0
  138.5950  137.8340  152.3880 C   0  0  0  0  0  2  0  0  0  0  0  0
  138.1530  137.6970  153.8460 C   0  0  0  0  0  2  0  0  0  0  0  0
  139.5240  137.8650  155.9500 C   0  0  0  0  0  1  0  0  0  0  0  0
  138.9570  138.6210  154.7590 C   0  0  0  0  0  2  0  0  0  0  0  0
  144.3910  140.8630  150.8740 C   0  0  0  0  0  2  0  0  0  0  0  0
  145.4730  141.0190  151.9120 C   0  0  0  0  0  0  0  0  0  0  0  0
  145.4150  140.2640  153.0990 C   0  0  0  0  0  3  0  0  0  0  0  0
  146.3810  140.3730  154.1240 C   0  0  0  0  0  0  0  0  0  0  0  0
  147.4230  141.2760  153.9410 C   0  0  0  0  0  0  0  0  0  0  0  0
  147.4980  142.0340  152.7660 C   0  0  0  0  0  3  0  0  0  0  0  0
  146.5380  141.9110  151.7610 C   0  0  0  0  0  0  0  0  0  0  0  0
  146.7290  142.8860  150.3490 Cl  0  0  0  0  0  0  0  0  0  0  0  0
  146.1010  139.5340  155.1660 O   0  0  0  0  0  0  0  0  0  0  0  0
  146.9440  138.4460  155.4860 C   0  0  0  0  0  1  0  0  0  0  0  0
  148.4510  141.5490  154.7990 O   0  0  0  0  0  0  0  0  0  0  0  0
  149.3340  141.5550  154.4870 H   0  0  0  0  0  0  0  0  0  0  0  0
  1  3  1  0  0  0  0
  2  1  2  0  0  0  0
  3 13  1  0  0  0  0
  3  4  1  0  0  0  0
  5  1  1  0  0  0  0
  5  6  1  0  0  0  0
  6  7  1  0  0  0  0
  7  8  1  0  0  0  0
  8  9  1  0  0  0  0
  9 10  1  0  0  0  0
 10 12  1  0  0  0  0
 12 11  1  0  0  0  0
 13 14  1  0  0  0  0
 14 15  1  0  0  0  0
 15 16  2  0  0  0  0
 16 21  1  0  0  0  0
 17 16  1  0  0  0  0
 17 23  1  0  0  0  0
 18 17  2  0  0  0  0
 19 14  2  0  0  0  0
 19 18  1  0  0  0  0
 20 19  1  0  0  0  0
 21 22  1  0  0  0  0
 24 23  1  0  0  0  0
M  END
>  <MODEL>
4

>  <REMARK>
 VINA RESULT:    -5.921      3.250      7.340
 INTER + INTRA:         -10.315
 INTER:                  -9.494
 INTRA:                  -0.821
 UNBOUND:                -0.759
  Name = CHEMBL187993
  13 active torsions:
  status: ('A' for Active; 'I' for Inactive)
    1  A    between atoms: C_1  and  C_2
    2  A    between atoms: C_2  and  C_3
    3  A    between atoms: C_3  and  C_4
    4  A    between atoms: C_4  and  C_5
    5  A    between atoms: C_5  and  C_6
    6  A    between atoms: C_6  and  C_7
    7  A    between atoms: C_7  and  C_8
    8  A    between atoms: C_8  and  C_9
    9  A    between atoms: N_11  and  C_12
   10  A    between atoms: C_12  and  C_13
   11  A    between atoms: C_15  and  O_16
   12  A    between atoms: O_16  and  C_17
   13  A    between atoms: C_18  and  O_19
                            x       y       z     vdW  Elec       q    Type
                         _______ _______ _______ _____ _____    ______ ____

>  <TORSDO>
F 11

>  <SCORE>
-5.921

>  <RMSD_LB>
3.250

>  <RMSD_UB>
7.340

$$$$
CHEMBL187993
 OpenBabel10172500083D

 24 24  0  0  0  0  0  0  0  0999 V2000
  144.3350  138.1690  149.6820 C   0  0  0  0  0  0  0  0  0  0  0  0
  145.1120  137.4340  150.2840 O   0  0  0  0  0  0  0  0  0  0  0  0
  142.9710  137.9990  149.7140 N   0  0  0  0  0  0  0  0  0  0  0  0
  142.3900  138.6370  149.2400 H   0  0  0  0  0  0  0  0  0  0  0  0
  144.8000  139.3770  148.8930 C   0  0  0  0  0  2  0  0  0  0  0  0
  145.6650  140.2850  149.7680 C   0  0  0  0  0  2  0  0  0  0  0  0
  144.8300  141.1910  150.6700 C   0  0  0  0  0  2  0  0  0  0  0  0
  145.5900  142.4810  150.9860 C   0  0  0  0  0  2  0  0  0  0  0  0
  146.8530  142.2050  151.8000 C   0  0  0  0  0  2  0  0  0  0  0  0
  146.5180  141.5010  153.1160 C   0  0  0  0  0  2  0  0  0  0  0  0
  148.9130  141.7500  153.8510 C   0  0  0  0  0  1  0  0  0  0  0  0
  147.4550  141.9450  154.2370 C   0  0  0  0  0  2  0  0  0  0  0  0
  142.3780  136.8920  150.4350 C   0  0  0  0  0  2  0  0  0  0  0  0
  141.2700  137.3330  151.3580 C   0  0  0  0  0  0  0  0  0  0  0  0
  139.9400  137.3500  150.8920 C   0  0  0  0  0  3  0  0  0  0  0  0
  138.8550  137.7710  151.6920 C   0  0  0  0  0  0  0  0  0  0  0  0
  139.1280  138.1900  152.9900 C   0  0  0  0  0  0  0  0  0  0  0  0
  140.4440  138.1770  153.4700 C   0  0  0  0  0  3  0  0  0  0  0  0
  141.5040  137.7540  152.6690 C   0  0  0  0  0  0  0  0  0  0  0  0
  143.0860  137.7700  153.3620 Cl  0  0  0  0  0  0  0  0  0  0  0  0
  137.6730  137.6920  151.0110 O   0  0  0  0  0  0  0  0  0  0  0  0
  137.3440  136.5620  150.2280 C   0  0  0  0  0  1  0  0  0  0  0  0
  138.2400  138.6440  153.9240 O   0  0  0  0  0  0  0  0  0  0  0  0
  138.3680  139.4820  154.3240 H   0  0  0  0  0  0  0  0  0  0  0  0
  1  3  1  0  0  0  0
  1  2  2  0  0  0  0
  3 13  1  0  0  0  0
  4  3  1  0  0  0  0
  5  1  1  0  0  0  0
  5  6  1  0  0  0  0
  6  7  1  0  0  0  0
  7  8  1  0  0  0  0
  8  9  1  0  0  0  0
  9 10  1  0  0  0  0
 10 12  1  0  0  0  0
 11 12  1  0  0  0  0
 13 14  1  0  0  0  0
 14 19  1  0  0  0  0
 15 14  2  0  0  0  0
 15 16  1  0  0  0  0
 16 17  2  0  0  0  0
 17 18  1  0  0  0  0
 17 23  1  0  0  0  0
 19 20  1  0  0  0  0
 19 18  2  0  0  0  0
 21 16  1  0  0  0  0
 22 21  1  0  0  0  0
 23 24  1  0  0  0  0
M  END
>  <MODEL>
5

>  <REMARK>
 VINA RESULT:    -5.913      1.733      2.723
 INTER + INTRA:         -10.301
 INTER:                  -9.469
 INTRA:                  -0.832
 UNBOUND:                -0.759
  Name = CHEMBL187993
  13 active torsions:
  status: ('A' for Active; 'I' for Inactive)
    1  A    between atoms: C_1  and  C_2
    2  A    between atoms: C_2  and  C_3
    3  A    between atoms: C_3  and  C_4
    4  A    between atoms: C_4  and  C_5
    5  A    between atoms: C_5  and  C_6
    6  A    between atoms: C_6  and  C_7
    7  A    between atoms: C_7  and  C_8
    8  A    between atoms: C_8  and  C_9
    9  A    between atoms: N_11  and  C_12
   10  A    between atoms: C_12  and  C_13
   11  A    between atoms: C_15  and  O_16
   12  A    between atoms: O_16  and  C_17
   13  A    between atoms: C_18  and  O_19
                            x       y       z     vdW  Elec       q    Type
                         _______ _______ _______ _____ _____    ______ ____

>  <TORSDO>
F 11

>  <SCORE>
-5.913

>  <RMSD_LB>
1.733

>  <RMSD_UB>
2.723

$$$$
CHEMBL187993
 OpenBabel10172500083D

 24 24  0  0  0  0  0  0  0  0999 V2000
  144.5850  139.3970  148.5910 C   0  0  0  0  0  0  0  0  0  0  0  0
  144.9790  140.1400  147.6980 O   0  0  0  0  0  0  0  0  0  0  0  0
  144.3880  139.8230  149.8840 N   0  0  0  0  0  0  0  0  0  0  0  0
  144.0390  139.1930  150.5550 H   0  0  0  0  0  0  0  0  0  0  0  0
  144.2160  137.9470  148.3430 C   0  0  0  0  0  2  0  0  0  0  0  0
  143.2290  137.4590  149.4040 C   0  0  0  0  0  2  0  0  0  0  0  0
  143.8530  136.4350  150.3500 C   0  0  0  0  0  2  0  0  0  0  0  0
  143.9420  137.0000  151.7690 C   0  0  0  0  0  2  0  0  0  0  0  0
  145.3410  136.8170  152.3600 C   0  0  0  0  0  2  0  0  0  0  0  0
  146.4160  137.3080  151.3910 C   0  0  0  0  0  2  0  0  0  0  0  0
  147.5890  137.3840  153.6170 C   0  0  0  0  0  1  0  0  0  0  0  0
  147.7040  137.6700  152.1280 C   0  0  0  0  0  2  0  0  0  0  0  0
  144.6900  141.1860  150.2700 C   0  0  0  0  0  2  0  0  0  0  0  0
  145.5740  141.2570  151.4890 C   0  0  0  0  0  0  0  0  0  0  0  0
  145.1820  140.6040  152.6740 C   0  0  0  0  0  3  0  0  0  0  0  0
  145.9480  140.6440  153.8600 C   0  0  0  0  0  0  0  0  0  0  0  0
  147.1340  141.3710  153.8430 C   0  0  0  0  0  0  0  0  0  0  0  0
  147.5410  142.0250  152.6720 C   0  0  0  0  0  3  0  0  0  0  0  0
  146.7740  141.9710  151.5080 C   0  0  0  0  0  0  0  0  0  0  0  0
  147.3710  142.8050  150.1190 Cl  0  0  0  0  0  0  0  0  0  0  0  0
  145.3550  139.9320  154.8630 O   0  0  0  0  0  0  0  0  0  0  0  0
  144.0650  139.3750  154.7120 C   0  0  0  0  0  1  0  0  0  0  0  0
  148.0170  141.5530  154.8700 O   0  0  0  0  0  0  0  0  0  0  0  0
  148.8330  141.9850  154.7150 H   0  0  0  0  0  0  0  0  0  0  0  0
  1  3  1  0  0  0  0
  2  1  2  0  0  0  0
  3 13  1  0  0  0  0
  3  4  1  0  0  0  0
  5  1  1  0  0  0  0
  5  6  1  0  0  0  0
  6  7  1  0  0  0  0
  7  8  1  0  0  0  0
  8  9  1  0  0  0  0
 10 12  1  0  0  0  0
 10  9  1  0  0  0  0
 12 11  1  0  0  0  0
 13 14  1  0  0  0  0
 14 19  2  0  0  0  0
 14 15  1  0  0  0  0
 15 16  2  0  0  0  0
 16 21  1  0  0  0  0
 17 16  1  0  0  0  0
 17 23  1  0  0  0  0
 18 17  2  0  0  0  0
 19 18  1  0  0  0  0
 20 19  1  0  0  0  0
 22 21  1  0  0  0  0
 24 23  1  0  0  0  0
M  END
>  <MODEL>
6

>  <REMARK>
 VINA RESULT:    -5.820      4.006      6.122
 INTER + INTRA:         -10.152
 INTER:                  -8.312
 INTRA:                  -1.840
 UNBOUND:                -0.759
  Name = CHEMBL187993
  13 active torsions:
  status: ('A' for Active; 'I' for Inactive)
    1  A    between atoms: C_1  and  C_2
    2  A    between atoms: C_2  and  C_3
    3  A    between atoms: C_3  and  C_4
    4  A    between atoms: C_4  and  C_5
    5  A    between atoms: C_5  and  C_6
    6  A    between atoms: C_6  and  C_7
    7  A    between atoms: C_7  and  C_8
    8  A    between atoms: C_8  and  C_9
    9  A    between atoms: N_11  and  C_12
   10  A    between atoms: C_12  and  C_13
   11  A    between atoms: C_15  and  O_16
   12  A    between atoms: O_16  and  C_17
   13  A    between atoms: C_18  and  O_19
                            x       y       z     vdW  Elec       q    Type
                         _______ _______ _______ _____ _____    ______ ____

>  <TORSDO>
F 11

>  <SCORE>
-5.820

>  <RMSD_LB>
4.006

>  <RMSD_UB>
6.122

$$$$
CHEMBL187993
 OpenBabel10172500083D

 24 24  0  0  0  0  0  0  0  0999 V2000
  145.1380  137.5220  153.2780 C   0  0  0  0  0  0  0  0  0  0  0  0
  145.3330  136.5950  154.0570 O   0  0  0  0  0  0  0  0  0  0  0  0
  143.9250  138.1590  153.1650 N   0  0  0  0  0  0  0  0  0  0  0  0
  143.8310  138.9200  152.5470 H   0  0  0  0  0  0  0  0  0  0  0  0
  146.2360  138.1000  152.4060 C   0  0  0  0  0  2  0  0  0  0  0  0
  146.8990  139.2900  153.1010 C   0  0  0  0  0  2  0  0  0  0  0  0
  148.1610  139.7560  152.3780 C   0  0  0  0  0  2  0  0  0  0  0  0
  148.5530  141.1630  152.8350 C   0  0  0  0  0  2  0  0  0  0  0  0
  147.3910  142.1450  152.6900 C   0  0  0  0  0  2  0  0  0  0  0  0
  147.0210  142.3480  151.2200 C   0  0  0  0  0  2  0  0  0  0  0  0
  145.0150  141.0960  150.3570 C   0  0  0  0  0  1  0  0  0  0  0  0
  145.5060  142.3690  151.0270 C   0  0  0  0  0  2  0  0  0  0  0  0
  142.7830  137.7230  153.9420 C   0  0  0  0  0  2  0  0  0  0  0  0
  141.4950  137.7900  153.1610 C   0  0  0  0  0  0  0  0  0  0  0  0
  141.5070  137.5480  151.7730 C   0  0  0  0  0  3  0  0  0  0  0  0
  140.3450  137.6140  150.9750 C   0  0  0  0  0  0  0  0  0  0  0  0
  139.1450  137.9410  151.5980 C   0  0  0  0  0  0  0  0  0  0  0  0
  139.1140  138.1840  152.9780 C   0  0  0  0  0  3  0  0  0  0  0  0
  140.2710  138.1100  153.7530 C   0  0  0  0  0  0  0  0  0  0  0  0
  140.1200  138.4190  155.4450 Cl  0  0  0  0  0  0  0  0  0  0  0  0
  140.6210  137.3350  149.6660 O   0  0  0  0  0  0  0  0  0  0  0  0
  141.6320  136.4170  149.3020 C   0  0  0  0  0  1  0  0  0  0  0  0
  137.9130  138.0720  151.0220 O   0  0  0  0  0  0  0  0  0  0  0  0
  137.5720  137.3850  150.4840 H   0  0  0  0  0  0  0  0  0  0  0  0
  1  2  2  0  0  0  0
  3  1  1  0  0  0  0
  3 13  1  0  0  0  0
  4  3  1  0  0  0  0
  5  6  1  0  0  0  0
  5  1  1  0  0  0  0
  7  8  1  0  0  0  0
  7  6  1  0  0  0  0
  9  8  1  0  0  0  0
 10  9  1  0  0  0  0
 11 12  1  0  0  0  0
 12 10  1  0  0  0  0
 14 19  1  0  0  0  0
 14 13  1  0  0  0  0
 15 14  2  0  0  0  0
 16 17  2  0  0  0  0
 16 15  1  0  0  0  0
 17 18  1  0  0  0  0
 18 19  2  0  0  0  0
 19 20  1  0  0  0  0
 21 16  1  0  0  0  0
 22 21  1  0  0  0  0
 23 17  1  0  0  0  0
 24 23  1  0  0  0  0
M  END
>  <MODEL>
7

>  <REMARK>
 VINA RESULT:    -5.730      2.338      3.622
 INTER + INTRA:         -10.006
 INTER:                  -8.938
 INTRA:                  -1.067
 UNBOUND:                -0.759
  Name = CHEMBL187993
  13 active torsions:
  status: ('A' for Active; 'I' for Inactive)
    1  A    between atoms: C_1  and  C_2
    2  A    between atoms: C_2  and  C_3
    3  A    between atoms: C_3  and  C_4
    4  A    between atoms: C_4  and  C_5
    5  A    between atoms: C_5  and  C_6
    6  A    between atoms: C_6  and  C_7
    7  A    between atoms: C_7  and  C_8
    8  A    between atoms: C_8  and  C_9
    9  A    between atoms: N_11  and  C_12
   10  A    between atoms: C_12  and  C_13
   11  A    between atoms: C_15  and  O_16
   12  A    between atoms: O_16  and  C_17
   13  A    between atoms: C_18  and  O_19
                            x       y       z     vdW  Elec       q    Type
                         _______ _______ _______ _____ _____    ______ ____

>  <TORSDO>
F 11

>  <SCORE>
-5.730

>  <RMSD_LB>
2.338

>  <RMSD_UB>
3.622

$$$$
CHEMBL187993
 OpenBabel10172500083D

 24 24  0  0  0  0  0  0  0  0999 V2000
  145.1920  137.4420  150.2670 C   0  0  0  0  0  0  0  0  0  0  0  0
  146.1140  136.6760  150.0060 O   0  0  0  0  0  0  0  0  0  0  0  0
  145.3480  138.8060  150.3220 N   0  0  0  0  0  0  0  0  0  0  0  0
  144.5680  139.3780  150.5040 H   0  0  0  0  0  0  0  0  0  0  0  0
  143.7710  136.9610  150.4950 C   0  0  0  0  0  2  0  0  0  0  0  0
  143.1350  137.7140  151.6640 C   0  0  0  0  0  2  0  0  0  0  0  0
  141.6750  137.3230  151.8800 C   0  0  0  0  0  2  0  0  0  0  0  0
  140.7710  138.0440  150.8770 C   0  0  0  0  0  2  0  0  0  0  0  0
  139.6420  137.1380  150.3860 C   0  0  0  0  0  2  0  0  0  0  0  0
  139.5190  137.1880  148.8630 C   0  0  0  0  0  2  0  0  0  0  0  0
  141.0330  135.2140  148.4770 C   0  0  0  0  0  1  0  0  0  0  0  0
  140.7940  136.6870  148.1870 C   0  0  0  0  0  2  0  0  0  0  0  0
  146.6480  139.4130  150.1170 C   0  0  0  0  0  2  0  0  0  0  0  0
  147.1920  140.0470  151.3720 C   0  0  0  0  0  0  0  0  0  0  0  0
  147.5290  139.2370  152.4740 C   0  0  0  0  0  3  0  0  0  0  0  0
  148.0240  139.7620  153.6880 C   0  0  0  0  0  0  0  0  0  0  0  0
  148.1710  141.1420  153.7860 C   0  0  0  0  0  0  0  0  0  0  0  0
  147.8420  141.9630  152.7000 C   0  0  0  0  0  3  0  0  0  0  0  0
  147.3590  141.4270  151.5060 C   0  0  0  0  0  0  0  0  0  0  0  0
  146.9920  142.5280  150.2270 Cl  0  0  0  0  0  0  0  0  0  0  0  0
  148.2770  138.7720  154.5950 O   0  0  0  0  0  0  0  0  0  0  0  0
  147.4130  138.5320  155.6870 C   0  0  0  0  0  1  0  0  0  0  0  0
  148.6160  141.8590  154.8610 O   0  0  0  0  0  0  0  0  0  0  0  0
  148.4330  141.5630  155.7310 H   0  0  0  0  0  0  0  0  0  0  0  0
  1  3  1  0  0  0  0
  1  5  1  0  0  0  0
  2  1  2  0  0  0  0
  3  4  1  0  0  0  0
  5  6  1  0  0  0  0
  6  7  1  0  0  0  0
  8  7  1  0  0  0  0
  9  8  1  0  0  0  0
 10  9  1  0  0  0  0
 12 11  1  0  0  0  0
 12 10  1  0  0  0  0
 13  3  1  0  0  0  0
 13 14  1  0  0  0  0
 14 19  2  0  0  0  0
 14 15  1  0  0  0  0
 15 16  2  0  0  0  0
 16 17  1  0  0  0  0
 16 21  1  0  0  0  0
 17 23  1  0  0  0  0
 18 17  2  0  0  0  0
 19 18  1  0  0  0  0
 20 19  1  0  0  0  0
 21 22  1  0  0  0  0
 23 24  1  0  0  0  0
M  END
>  <MODEL>
8

>  <REMARK>
 VINA RESULT:    -5.631      3.918      7.757
 INTER + INTRA:          -9.846
 INTER:                  -8.714
 INTRA:                  -1.133
 UNBOUND:                -0.759
  Name = CHEMBL187993
  13 active torsions:
  status: ('A' for Active; 'I' for Inactive)
    1  A    between atoms: C_1  and  C_2
    2  A    between atoms: C_2  and  C_3
    3  A    between atoms: C_3  and  C_4
    4  A    between atoms: C_4  and  C_5
    5  A    between atoms: C_5  and  C_6
    6  A    between atoms: C_6  and  C_7
    7  A    between atoms: C_7  and  C_8
    8  A    between atoms: C_8  and  C_9
    9  A    between atoms: N_11  and  C_12
   10  A    between atoms: C_12  and  C_13
   11  A    between atoms: C_15  and  O_16
   12  A    between atoms: O_16  and  C_17
   13  A    between atoms: C_18  and  O_19
                            x       y       z     vdW  Elec       q    Type
                         _______ _______ _______ _____ _____    ______ ____

>  <TORSDO>
F 11

>  <SCORE>
-5.631

>  <RMSD_LB>
3.918

>  <RMSD_UB>
7.757

$$$$
CHEMBL187993
 OpenBabel10172500083D

 24 24  0  0  0  0  0  0  0  0999 V2000
  140.1150  138.4410  154.5000 C   0  0  0  0  0  0  0  0  0  0  0  0
  140.4520  138.8390  155.6100 O   0  0  0  0  0  0  0  0  0  0  0  0
  138.9070  137.8300  154.2610 N   0  0  0  0  0  0  0  0  0  0  0  0
  138.6720  137.5580  153.3450 H   0  0  0  0  0  0  0  0  0  0  0  0
  140.9750  138.6390  153.2660 C   0  0  0  0  0  2  0  0  0  0  0  0
  142.2390  137.7830  153.3540 C   0  0  0  0  0  2  0  0  0  0  0  0
  142.8240  137.4680  151.9790 C   0  0  0  0  0  2  0  0  0  0  0  0
  141.7150  137.0830  150.9980 C   0  0  0  0  0  2  0  0  0  0  0  0
  141.9620  137.6750  149.6100 C   0  0  0  0  0  2  0  0  0  0  0  0
  143.0570  136.9070  148.8700 C   0  0  0  0  0  2  0  0  0  0  0  0
  143.0090  134.4040  148.6070 C   0  0  0  0  0  1  0  0  0  0  0  0
  142.4780  135.7300  148.0880 C   0  0  0  0  0  2  0  0  0  0  0  0
  137.9760  137.5800  155.3430 C   0  0  0  0  0  2  0  0  0  0  0  0
  136.8950  136.6020  154.9580 C   0  0  0  0  0  0  0  0  0  0  0  0
  136.6190  136.3670  153.5970 C   0  0  0  0  0  3  0  0  0  0  0  0
  135.6080  135.4820  153.1620 C   0  0  0  0  0  0  0  0  0  0  0  0
  134.8550  134.8290  154.1320 C   0  0  0  0  0  0  0  0  0  0  0  0
  135.1160  135.0500  155.4910 C   0  0  0  0  0  3  0  0  0  0  0  0
  136.1220  135.9240  155.9030 C   0  0  0  0  0  0  0  0  0  0  0  0
  136.3660  136.1170  157.6020 Cl  0  0  0  0  0  0  0  0  0  0  0  0
  135.5440  135.4280  151.7980 O   0  0  0  0  0  0  0  0  0  0  0  0
  136.3080  136.2960  150.9870 C   0  0  0  0  0  1  0  0  0  0  0  0
  133.8290  133.9480  153.9390 O   0  0  0  0  0  0  0  0  0  0  0  0
  133.1680  134.1310  153.3010 H   0  0  0  0  0  0  0  0  0  0  0  0
  1  2  2  0  0  0  0
  3  1  1  0  0  0  0
  3 13  1  0  0  0  0
  4  3  1  0  0  0  0
  5  6  1  0  0  0  0
  5  1  1  0  0  0  0
  7  6  1  0  0  0  0
  8  7  1  0  0  0  0
  9  8  1  0  0  0  0
 10  9  1  0  0  0  0
 12 11  1  0  0  0  0
 12 10  1  0  0  0  0
 14 13  1  0  0  0  0
 14 19  1  0  0  0  0
 15 14  2  0  0  0  0
 16 15  1  0  0  0  0
 16 17  2  0  0  0  0
 17 18  1  0  0  0  0
 18 19  2  0  0  0  0
 19 20  1  0  0  0  0
 21 16  1  0  0  0  0
 22 21  1  0  0  0  0
 23 17  1  0  0  0  0
 24 23  1  0  0  0  0
M  END
>  <MODEL>
9

>  <REMARK>
 VINA RESULT:    -5.558      4.516      6.730
 INTER + INTRA:          -9.729
 INTER:                  -8.970
 INTRA:                  -0.759
 UNBOUND:                -0.759
  Name = CHEMBL187993
  13 active torsions:
  status: ('A' for Active; 'I' for Inactive)
    1  A    between atoms: C_1  and  C_2
    2  A    between atoms: C_2  and  C_3
    3  A    between atoms: C_3  and  C_4
    4  A    between atoms: C_4  and  C_5
    5  A    between atoms: C_5  and  C_6
    6  A    between atoms: C_6  and  C_7
    7  A    between atoms: C_7  and  C_8
    8  A    between atoms: C_8  and  C_9
    9  A    between atoms: N_11  and  C_12
   10  A    between atoms: C_12  and  C_13
   11  A    between atoms: C_15  and  O_16
   12  A    between atoms: O_16  and  C_17
   13  A    between atoms: C_18  and  O_19
                            x       y       z     vdW  Elec       q    Type
                         _______ _______ _______ _____ _____    ______ ____

>  <TORSDO>
F 11

>  <SCORE>
-5.558

>  <RMSD_LB>
4.516

>  <RMSD_UB>
6.730

$$$$
