CHEMBL4440238
 OpenBabel10172500373D

 31 33  0  0  0  0  0  0  0  0999 V2000
  136.0850  136.4830  155.4230 C   0  0  0  0  0  2  0  0  0  0  0  0
  135.2200  134.6480  154.0500 N   0  0  0  0  0  0  0  0  0  0  0  0
  134.9670  135.9090  154.5470 C   0  0  0  0  0  0  0  0  0  0  0  0
  133.9600  136.5570  154.2770 O   0  0  0  0  0  0  0  0  0  0  0  0
  136.0770  134.2160  154.2710 H   0  0  0  0  0  0  0  0  0  0  0  0
  134.2750  133.9340  153.2140 C   0  0  0  0  0  2  0  0  0  0  0  0
  135.9660  134.6240  149.8230 C   0  0  0  0  0  0  0  0  0  0  0  0
  135.7040  134.6260  151.1990 C   0  0  0  0  0  3  0  0  0  0  0  0
  134.5930  133.9510  151.7330 C   0  0  0  0  0  0  0  0  0  0  0  0
  133.7410  133.2670  150.8490 C   0  0  0  0  0  3  0  0  0  0  0  0
  133.9860  133.2620  149.4730 C   0  0  0  0  0  3  0  0  0  0  0  0
  135.0930  133.9400  148.9680 C   0  0  0  0  0  0  0  0  0  0  0  0
  137.1680  136.6450  149.4830 C   0  0  0  0  0  1  0  0  0  0  0  0
  137.0300  135.2540  149.2310 O   0  0  0  0  0  0  0  0  0  0  0  0
  135.3370  133.9420  147.6200 O   0  0  0  0  0  0  0  0  0  0  0  0
  134.6550  133.7130  147.0210 H   0  0  0  0  0  0  0  0  0  0  0  0
  137.2720  136.7790  154.6480 N   0  0  0  0  0  0  0  0  0  0  0  0
  137.7870  138.0520  154.5700 C   0  0  0  0  0  0  0  0  0  0  0  0
  137.2760  139.0070  155.1490 O   0  0  0  0  0  0  0  0  0  0  0  0
  137.7210  136.0510  154.1630 H   0  0  0  0  0  0  0  0  0  0  0  0
  139.0030  138.1490  153.7620 C   0  0  0  0  0  0  0  0  0  0  0  0
  139.0670  137.7730  152.4240 N   0  0  0  0  0  0  0  0  0  0  0  0
  140.3190  137.9850  152.0690 C   0  0  0  0  0  3  0  0  0  0  0  0
  141.0660  138.4750  153.1090 N   0  0  0  0  0  0  0  0  0  0  0  0
  142.4100  138.7950  153.1310 C   0  0  0  0  0  0  0  0  0  0  0  0
  143.0840  138.6570  152.1230 O   0  0  0  0  0  0  0  0  0  0  0  0
  142.7900  139.2430  154.3850 N   0  0  0  0  0  0  0  0  0  0  0  0
  144.1650  139.6240  154.6370 C   0  0  0  0  0  1  0  0  0  0  0  0
  141.9410  139.3740  155.4610 N   0  0  0  0  0  0  0  0  0  0  0  0
  140.7300  139.0750  155.3530 N   0  0  0  0  0  0  0  0  0  0  0  0
  140.2410  138.6010  154.1900 C   0  0  0  0  0  0  0  0  0  0  0  0
  2  5  1  0  0  0  0
  2  3  1  0  0  0  0
  3  1  1  0  0  0  0
  4  3  2  0  0  0  0
  6  2  1  0  0  0  0
  7  8  1  0  0  0  0
  8  9  2  0  0  0  0
  9  6  1  0  0  0  0
 10  9  1  0  0  0  0
 11 10  2  0  0  0  0
 12 11  1  0  0  0  0
 12  7  2  0  0  0  0
 14 13  1  0  0  0  0
 14  7  1  0  0  0  0
 15 12  1  0  0  0  0
 16 15  1  0  0  0  0
 17  1  1  0  0  0  0
 18 17  1  0  0  0  0
 18 19  2  0  0  0  0
 20 17  1  0  0  0  0
 21 31  2  0  0  0  0
 21 18  1  0  0  0  0
 22 21  1  0  0  0  0
 23 22  2  0  0  0  0
 23 24  1  0  0  0  0
 24 25  1  0  0  0  0
 24 31  1  0  0  0  0
 25 27  1  0  0  0  0
 26 25  2  0  0  0  0
 27 28  1  0  0  0  0
 27 29  1  0  0  0  0
 30 29  2  0  0  0  0
 31 30  1  0  0  0  0
M  END
>  <MODEL>
1

>  <REMARK>
 VINA RESULT:    -8.137      0.000      0.000
 INTER + INTRA:         -12.001
 INTER:                 -11.137
 INTRA:                  -0.865
 UNBOUND:                -0.773
  Name = CHEMBL4440238
  9 active torsions:
  status: ('A' for Active; 'I' for Inactive)
    1  A    between atoms: C_1  and  O_2
    2  A    between atoms: O_2  and  C_3
    3  A    between atoms: C_5  and  C_6
    4  A    between atoms: C_6  and  N_7
    5  A    between atoms: C_8  and  C_10
    6  A    between atoms: C_10  and  N_11
    7  A    between atoms: C_12  and  C_14
    8  A    between atoms: N_20  and  C_21
    9  A    between atoms: C_27  and  O_28
                            x       y       z     vdW  Elec       q    Type
                         _______ _______ _______ _____ _____    ______ ____

>  <TORSDO>
F 7

>  <SCORE>
-8.137

>  <RMSD_LB>
0.000

>  <RMSD_UB>
0.000

$$$$
CHEMBL4440238
 OpenBabel10172500373D

 31 33  0  0  0  0  0  0  0  0999 V2000
  135.5500  135.4360  155.0870 C   0  0  0  0  0  2  0  0  0  0  0  0
  134.6070  135.9060  152.8760 N   0  0  0  0  0  0  0  0  0  0  0  0
  134.3350  135.4710  154.1560 C   0  0  0  0  0  0  0  0  0  0  0  0
  133.2090  135.1830  154.5510 O   0  0  0  0  0  0  0  0  0  0  0  0
  135.5300  136.1680  152.6530 H   0  0  0  0  0  0  0  0  0  0  0  0
  133.5890  135.9920  151.8470 C   0  0  0  0  0  2  0  0  0  0  0  0
  133.8950  134.4100  148.3490 C   0  0  0  0  0  0  0  0  0  0  0  0
  133.7620  135.3640  149.3660 C   0  0  0  0  0  3  0  0  0  0  0  0
  133.7350  134.9900  150.7200 C   0  0  0  0  0  0  0  0  0  0  0  0
  133.8450  133.6250  151.0370 C   0  0  0  0  0  3  0  0  0  0  0  0
  133.9710  132.6620  150.0330 C   0  0  0  0  0  3  0  0  0  0  0  0
  133.9940  133.0570  148.6970 C   0  0  0  0  0  0  0  0  0  0  0  0
  134.9490  135.5920  146.5780 C   0  0  0  0  0  1  0  0  0  0  0  0
  133.9330  134.6990  147.0090 O   0  0  0  0  0  0  0  0  0  0  0  0
  134.1130  132.1180  147.7080 O   0  0  0  0  0  0  0  0  0  0  0  0
  133.3940  131.5520  147.5100 H   0  0  0  0  0  0  0  0  0  0  0  0
  136.6710  136.1650  154.5300 N   0  0  0  0  0  0  0  0  0  0  0  0
  137.0820  137.3700  155.0490 C   0  0  0  0  0  0  0  0  0  0  0  0
  136.5290  137.8970  156.0090 O   0  0  0  0  0  0  0  0  0  0  0  0
  137.1510  135.7870  153.7590 H   0  0  0  0  0  0  0  0  0  0  0  0
  138.2460  137.9400  154.3700 C   0  0  0  0  0  0  0  0  0  0  0  0
  139.2540  138.6380  155.0290 N   0  0  0  0  0  0  0  0  0  0  0  0
  140.0930  139.0030  154.0800 C   0  0  0  0  0  3  0  0  0  0  0  0
  139.6780  138.5810  152.8440 N   0  0  0  0  0  0  0  0  0  0  0  0
  140.2740  138.7900  151.6150 C   0  0  0  0  0  0  0  0  0  0  0  0
  141.3180  139.4180  151.5450 O   0  0  0  0  0  0  0  0  0  0  0  0
  139.5280  138.2140  150.6010 N   0  0  0  0  0  0  0  0  0  0  0  0
  139.9650  138.3210  149.2230 C   0  0  0  0  0  1  0  0  0  0  0  0
  138.3590  137.5100  150.7890 N   0  0  0  0  0  0  0  0  0  0  0  0
  137.8930  137.3540  151.9400 N   0  0  0  0  0  0  0  0  0  0  0  0
  138.5130  137.8890  153.0110 C   0  0  0  0  0  0  0  0  0  0  0  0
  2  3  1  0  0  0  0
  3  4  2  0  0  0  0
  3  1  1  0  0  0  0
  5  2  1  0  0  0  0
  6  2  1  0  0  0  0
  7 12  2  0  0  0  0
  7  8  1  0  0  0  0
  8  9  2  0  0  0  0
  9 10  1  0  0  0  0
  9  6  1  0  0  0  0
 11 10  2  0  0  0  0
 12 11  1  0  0  0  0
 13 14  1  0  0  0  0
 14  7  1  0  0  0  0
 15 12  1  0  0  0  0
 16 15  1  0  0  0  0
 17 18  1  0  0  0  0
 17  1  1  0  0  0  0
 18 19  2  0  0  0  0
 20 17  1  0  0  0  0
 21 22  1  0  0  0  0
 21 18  1  0  0  0  0
 23 22  2  0  0  0  0
 24 31  1  0  0  0  0
 24 23  1  0  0  0  0
 25 24  1  0  0  0  0
 26 25  2  0  0  0  0
 27 29  1  0  0  0  0
 27 25  1  0  0  0  0
 28 27  1  0  0  0  0
 29 30  2  0  0  0  0
 30 31  1  0  0  0  0
 31 21  2  0  0  0  0
M  END
>  <MODEL>
2

>  <REMARK>
 VINA RESULT:    -7.822      2.008      2.929
 INTER + INTRA:         -11.568
 INTER:                 -10.420
 INTRA:                  -1.148
 UNBOUND:                -0.773
  Name = CHEMBL4440238
  9 active torsions:
  status: ('A' for Active; 'I' for Inactive)
    1  A    between atoms: C_1  and  O_2
    2  A    between atoms: O_2  and  C_3
    3  A    between atoms: C_5  and  C_6
    4  A    between atoms: C_6  and  N_7
    5  A    between atoms: C_8  and  C_10
    6  A    between atoms: C_10  and  N_11
    7  A    between atoms: C_12  and  C_14
    8  A    between atoms: N_20  and  C_21
    9  A    between atoms: C_27  and  O_28
                            x       y       z     vdW  Elec       q    Type
                         _______ _______ _______ _____ _____    ______ ____

>  <TORSDO>
F 7

>  <SCORE>
-7.822

>  <RMSD_LB>
2.008

>  <RMSD_UB>
2.929

$$$$
CHEMBL4440238
 OpenBabel10172500373D

 31 33  0  0  0  0  0  0  0  0999 V2000
  135.8160  134.8600  153.0830 C   0  0  0  0  0  2  0  0  0  0  0  0
  133.9590  134.4470  151.5400 N   0  0  0  0  0  0  0  0  0  0  0  0
  134.5740  135.3770  152.3510 C   0  0  0  0  0  0  0  0  0  0  0  0
  134.2040  136.5430  152.4490 O   0  0  0  0  0  0  0  0  0  0  0  0
  134.3500  133.5450  151.4750 H   0  0  0  0  0  0  0  0  0  0  0  0
  132.7620  134.7440  150.7780 C   0  0  0  0  0  2  0  0  0  0  0  0
  133.7100  134.9260  147.0500 C   0  0  0  0  0  0  0  0  0  0  0  0
  133.4900  134.4250  148.3390 C   0  0  0  0  0  3  0  0  0  0  0  0
  133.0080  135.2480  149.3720 C   0  0  0  0  0  0  0  0  0  0  0  0
  132.7490  136.5980  149.0800 C   0  0  0  0  0  3  0  0  0  0  0  0
  132.9700  137.1140  147.8000 C   0  0  0  0  0  3  0  0  0  0  0  0
  133.4500  136.2770  146.7940 C   0  0  0  0  0  0  0  0  0  0  0  0
  135.2310  133.2770  146.2670 C   0  0  0  0  0  1  0  0  0  0  0  0
  134.1730  134.1830  145.9940 O   0  0  0  0  0  0  0  0  0  0  0  0
  133.6720  136.7770  145.5380 O   0  0  0  0  0  0  0  0  0  0  0  0
  134.5370  136.7720  145.1790 H   0  0  0  0  0  0  0  0  0  0  0  0
  135.8770  135.3490  154.4440 N   0  0  0  0  0  0  0  0  0  0  0  0
  136.5780  136.4840  154.7760 C   0  0  0  0  0  0  0  0  0  0  0  0
  137.1900  137.1480  153.9440 O   0  0  0  0  0  0  0  0  0  0  0  0
  135.4030  134.8550  155.1510 H   0  0  0  0  0  0  0  0  0  0  0  0
  136.5000  136.8340  156.1950 C   0  0  0  0  0  0  0  0  0  0  0  0
  137.2540  137.8480  156.7770 N   0  0  0  0  0  0  0  0  0  0  0  0
  136.9210  137.8310  158.0530 C   0  0  0  0  0  3  0  0  0  0  0  0
  135.9950  136.8580  158.3230 N   0  0  0  0  0  0  0  0  0  0  0  0
  135.4260  136.5210  159.5370 C   0  0  0  0  0  0  0  0  0  0  0  0
  135.7350  137.1360  160.5450 O   0  0  0  0  0  0  0  0  0  0  0  0
  134.5440  135.4630  159.3910 N   0  0  0  0  0  0  0  0  0  0  0  0
  133.8400  134.9370  160.5430 C   0  0  0  0  0  1  0  0  0  0  0  0
  134.2540  134.8430  158.1960 N   0  0  0  0  0  0  0  0  0  0  0  0
  134.8040  135.2200  157.1370 N   0  0  0  0  0  0  0  0  0  0  0  0
  135.7040  136.2240  157.1500 C   0  0  0  0  0  0  0  0  0  0  0  0
  1 17  1  0  0  0  0
  2  3  1  0  0  0  0
  3  4  2  0  0  0  0
  3  1  1  0  0  0  0
  5  2  1  0  0  0  0
  6  2  1  0  0  0  0
  7  8  1  0  0  0  0
  8  9  2  0  0  0  0
  9  6  1  0  0  0  0
 10  9  1  0  0  0  0
 11 10  2  0  0  0  0
 12  7  2  0  0  0  0
 12 11  1  0  0  0  0
 14 13  1  0  0  0  0
 14  7  1  0  0  0  0
 15 12  1  0  0  0  0
 16 15  1  0  0  0  0
 17 18  1  0  0  0  0
 17 20  1  0  0  0  0
 18 21  1  0  0  0  0
 19 18  2  0  0  0  0
 21 22  1  0  0  0  0
 21 31  2  0  0  0  0
 22 23  2  0  0  0  0
 23 24  1  0  0  0  0
 24 25  1  0  0  0  0
 25 26  2  0  0  0  0
 27 25  1  0  0  0  0
 27 28  1  0  0  0  0
 29 27  1  0  0  0  0
 30 31  1  0  0  0  0
 30 29  2  0  0  0  0
 31 24  1  0  0  0  0
M  END
>  <MODEL>
3

>  <REMARK>
 VINA RESULT:    -7.768      3.860      5.966
 INTER + INTRA:         -11.493
 INTER:                 -10.645
 INTRA:                  -0.848
 UNBOUND:                -0.773
  Name = CHEMBL4440238
  9 active torsions:
  status: ('A' for Active; 'I' for Inactive)
    1  A    between atoms: C_1  and  O_2
    2  A    between atoms: O_2  and  C_3
    3  A    between atoms: C_5  and  C_6
    4  A    between atoms: C_6  and  N_7
    5  A    between atoms: C_8  and  C_10
    6  A    between atoms: C_10  and  N_11
    7  A    between atoms: C_12  and  C_14
    8  A    between atoms: N_20  and  C_21
    9  A    between atoms: C_27  and  O_28
                            x       y       z     vdW  Elec       q    Type
                         _______ _______ _______ _____ _____    ______ ____

>  <TORSDO>
F 7

>  <SCORE>
-7.768

>  <RMSD_LB>
3.860

>  <RMSD_UB>
5.966

$$$$
CHEMBL4440238
 OpenBabel10172500373D

 31 33  0  0  0  0  0  0  0  0999 V2000
  139.4220  138.8380  151.9330 C   0  0  0  0  0  2  0  0  0  0  0  0
  138.3880  137.1570  150.4820 N   0  0  0  0  0  0  0  0  0  0  0  0
  138.5660  138.5060  150.7070 C   0  0  0  0  0  0  0  0  0  0  0  0
  138.1290  139.3820  149.9670 O   0  0  0  0  0  0  0  0  0  0  0  0
  138.8160  136.5160  151.0950 H   0  0  0  0  0  0  0  0  0  0  0  0
  137.5960  136.6460  149.3800 C   0  0  0  0  0  2  0  0  0  0  0  0
  133.7460  136.5580  149.3240 C   0  0  0  0  0  0  0  0  0  0  0  0
  135.0700  136.8550  148.9800 C   0  0  0  0  0  3  0  0  0  0  0  0
  136.1510  136.3440  149.7190 C   0  0  0  0  0  0  0  0  0  0  0  0
  135.8710  135.5190  150.8230 C   0  0  0  0  0  3  0  0  0  0  0  0
  134.5550  135.2200  151.1820 C   0  0  0  0  0  3  0  0  0  0  0  0
  133.5010  135.7400  150.4340 C   0  0  0  0  0  0  0  0  0  0  0  0
  132.7310  137.0450  147.2310 C   0  0  0  0  0  1  0  0  0  0  0  0
  132.6440  137.0160  148.6480 O   0  0  0  0  0  0  0  0  0  0  0  0
  132.2080  135.4530  150.7820 O   0  0  0  0  0  0  0  0  0  0  0  0
  131.5410  135.4240  150.1240 H   0  0  0  0  0  0  0  0  0  0  0  0
  138.8820  138.2450  153.1390 N   0  0  0  0  0  0  0  0  0  0  0  0
  139.1790  138.7420  154.3870 C   0  0  0  0  0  0  0  0  0  0  0  0
  139.9140  139.7110  154.5520 O   0  0  0  0  0  0  0  0  0  0  0  0
  138.2860  137.4660  153.0630 H   0  0  0  0  0  0  0  0  0  0  0  0
  138.5190  138.0280  155.4800 C   0  0  0  0  0  0  0  0  0  0  0  0
  138.9380  138.0970  156.8050 N   0  0  0  0  0  0  0  0  0  0  0  0
  138.1140  137.3070  157.4650 C   0  0  0  0  0  3  0  0  0  0  0  0
  137.1880  136.7310  156.6350 N   0  0  0  0  0  0  0  0  0  0  0  0
  136.1850  135.8340  156.9510 C   0  0  0  0  0  0  0  0  0  0  0  0
  136.0370  135.4700  158.1060 O   0  0  0  0  0  0  0  0  0  0  0  0
  135.4720  135.4740  155.8200 N   0  0  0  0  0  0  0  0  0  0  0  0
  134.3760  134.5310  155.9190 C   0  0  0  0  0  1  0  0  0  0  0  0
  135.7140  135.9570  154.5530 N   0  0  0  0  0  0  0  0  0  0  0  0
  136.6360  136.7790  154.3540 N   0  0  0  0  0  0  0  0  0  0  0  0
  137.4210  137.1900  155.3700 C   0  0  0  0  0  0  0  0  0  0  0  0
  1 17  1  0  0  0  0
  2  3  1  0  0  0  0
  2  5  1  0  0  0  0
  3  1  1  0  0  0  0
  4  3  2  0  0  0  0
  6  9  1  0  0  0  0
  6  2  1  0  0  0  0
  7 12  1  0  0  0  0
  8  7  2  0  0  0  0
  8  9  1  0  0  0  0
  9 10  2  0  0  0  0
 10 11  1  0  0  0  0
 12 15  1  0  0  0  0
 12 11  2  0  0  0  0
 13 14  1  0  0  0  0
 14  7  1  0  0  0  0
 16 15  1  0  0  0  0
 17 18  1  0  0  0  0
 18 19  2  0  0  0  0
 18 21  1  0  0  0  0
 20 17  1  0  0  0  0
 21 22  1  0  0  0  0
 22 23  2  0  0  0  0
 24 25  1  0  0  0  0
 24 23  1  0  0  0  0
 25 26  2  0  0  0  0
 27 28  1  0  0  0  0
 27 25  1  0  0  0  0
 29 27  1  0  0  0  0
 30 29  2  0  0  0  0
 30 31  1  0  0  0  0
 31 21  2  0  0  0  0
 31 24  1  0  0  0  0
M  END
>  <MODEL>
4

>  <REMARK>
 VINA RESULT:    -7.686      2.666      5.466
 INTER + INTRA:         -11.380
 INTER:                 -10.134
 INTRA:                  -1.245
 UNBOUND:                -0.773
  Name = CHEMBL4440238
  9 active torsions:
  status: ('A' for Active; 'I' for Inactive)
    1  A    between atoms: C_1  and  O_2
    2  A    between atoms: O_2  and  C_3
    3  A    between atoms: C_5  and  C_6
    4  A    between atoms: C_6  and  N_7
    5  A    between atoms: C_8  and  C_10
    6  A    between atoms: C_10  and  N_11
    7  A    between atoms: C_12  and  C_14
    8  A    between atoms: N_20  and  C_21
    9  A    between atoms: C_27  and  O_28
                            x       y       z     vdW  Elec       q    Type
                         _______ _______ _______ _____ _____    ______ ____

>  <TORSDO>
F 7

>  <SCORE>
-7.686

>  <RMSD_LB>
2.666

>  <RMSD_UB>
5.466

$$$$
CHEMBL4440238
 OpenBabel10172500373D

 31 33  0  0  0  0  0  0  0  0999 V2000
  134.6570  134.2670  151.0020 C   0  0  0  0  0  2  0  0  0  0  0  0
  135.2810  136.2420  149.6950 N   0  0  0  0  0  0  0  0  0  0  0  0
  135.5090  134.8980  149.8960 C   0  0  0  0  0  0  0  0  0  0  0  0
  136.2850  134.2310  149.2180 O   0  0  0  0  0  0  0  0  0  0  0  0
  134.6030  136.6940  150.2480 H   0  0  0  0  0  0  0  0  0  0  0  0
  136.0010  137.0180  148.7040 C   0  0  0  0  0  2  0  0  0  0  0  0
  138.7710  138.6300  150.8400 C   0  0  0  0  0  0  0  0  0  0  0  0
  137.8580  137.6920  150.3410 C   0  0  0  0  0  3  0  0  0  0  0  0
  137.0030  138.0030  149.2690 C   0  0  0  0  0  0  0  0  0  0  0  0
  137.0850  139.2870  148.7020 C   0  0  0  0  0  3  0  0  0  0  0  0
  137.9870  140.2340  149.1940 C   0  0  0  0  0  3  0  0  0  0  0  0
  138.8220  139.9020  150.2590 C   0  0  0  0  0  0  0  0  0  0  0  0
  139.0900  138.4450  153.1880 C   0  0  0  0  0  1  0  0  0  0  0  0
  139.6360  138.3970  151.8780 O   0  0  0  0  0  0  0  0  0  0  0  0
  139.7050  140.8270  150.7490 O   0  0  0  0  0  0  0  0  0  0  0  0
  140.3400  140.5740  151.3900 H   0  0  0  0  0  0  0  0  0  0  0  0
  135.2060  134.5330  152.3160 N   0  0  0  0  0  0  0  0  0  0  0  0
  134.8410  135.6430  153.0420 C   0  0  0  0  0  0  0  0  0  0  0  0
  134.0350  136.4690  152.6230 O   0  0  0  0  0  0  0  0  0  0  0  0
  135.8570  133.9030  152.6990 H   0  0  0  0  0  0  0  0  0  0  0  0
  135.4810  135.7260  154.3550 C   0  0  0  0  0  0  0  0  0  0  0  0
  136.7850  136.1710  154.5460 N   0  0  0  0  0  0  0  0  0  0  0  0
  136.9920  136.0730  155.8450 C   0  0  0  0  0  3  0  0  0  0  0  0
  135.8900  135.5870  156.5000 N   0  0  0  0  0  0  0  0  0  0  0  0
  135.7330  135.3260  157.8480 C   0  0  0  0  0  0  0  0  0  0  0  0
  136.6530  135.5420  158.6200 O   0  0  0  0  0  0  0  0  0  0  0  0
  134.4700  134.8220  158.1080 N   0  0  0  0  0  0  0  0  0  0  0  0
  134.0910  134.4670  159.4600 C   0  0  0  0  0  1  0  0  0  0  0  0
  133.4930  134.6250  157.1570 N   0  0  0  0  0  0  0  0  0  0  0  0
  133.7130  134.9010  155.9560 N   0  0  0  0  0  0  0  0  0  0  0  0
  134.9140  135.3760  155.5690 C   0  0  0  0  0  0  0  0  0  0  0  0
  1 17  1  0  0  0  0
  2  3  1  0  0  0  0
  2  5  1  0  0  0  0
  3  1  1  0  0  0  0
  4  3  2  0  0  0  0
  6  9  1  0  0  0  0
  6  2  1  0  0  0  0
  7 14  1  0  0  0  0
  8  7  1  0  0  0  0
  9  8  2  0  0  0  0
 10 11  2  0  0  0  0
 10  9  1  0  0  0  0
 11 12  1  0  0  0  0
 12 15  1  0  0  0  0
 12  7  2  0  0  0  0
 14 13  1  0  0  0  0
 15 16  1  0  0  0  0
 17 20  1  0  0  0  0
 17 18  1  0  0  0  0
 18 21  1  0  0  0  0
 19 18  2  0  0  0  0
 21 22  1  0  0  0  0
 21 31  2  0  0  0  0
 22 23  2  0  0  0  0
 23 24  1  0  0  0  0
 24 25  1  0  0  0  0
 25 27  1  0  0  0  0
 25 26  2  0  0  0  0
 27 28  1  0  0  0  0
 29 27  1  0  0  0  0
 30 29  2  0  0  0  0
 31 30  1  0  0  0  0
 31 24  1  0  0  0  0
M  END
>  <MODEL>
5

>  <REMARK>
 VINA RESULT:    -7.684      3.002      6.784
 INTER + INTRA:         -11.377
 INTER:                 -10.345
 INTRA:                  -1.031
 UNBOUND:                -0.773
  Name = CHEMBL4440238
  9 active torsions:
  status: ('A' for Active; 'I' for Inactive)
    1  A    between atoms: C_1  and  O_2
    2  A    between atoms: O_2  and  C_3
    3  A    between atoms: C_5  and  C_6
    4  A    between atoms: C_6  and  N_7
    5  A    between atoms: C_8  and  C_10
    6  A    between atoms: C_10  and  N_11
    7  A    between atoms: C_12  and  C_14
    8  A    between atoms: N_20  and  C_21
    9  A    between atoms: C_27  and  O_28
                            x       y       z     vdW  Elec       q    Type
                         _______ _______ _______ _____ _____    ______ ____

>  <TORSDO>
F 7

>  <SCORE>
-7.684

>  <RMSD_LB>
3.002

>  <RMSD_UB>
6.784

$$$$
CHEMBL4440238
 OpenBabel10172500373D

 31 33  0  0  0  0  0  0  0  0999 V2000
  140.4210  138.5190  153.1860 C   0  0  0  0  0  2  0  0  0  0  0  0
  138.2740  137.7450  152.2980 N   0  0  0  0  0  0  0  0  0  0  0  0
  139.6280  137.8490  152.0600 C   0  0  0  0  0  0  0  0  0  0  0  0
  140.1790  137.3980  151.0600 O   0  0  0  0  0  0  0  0  0  0  0  0
  137.9160  138.0860  153.1500 H   0  0  0  0  0  0  0  0  0  0  0  0
  137.3560  137.1550  151.3430 C   0  0  0  0  0  2  0  0  0  0  0  0
  134.7690  134.3220  151.6880 C   0  0  0  0  0  0  0  0  0  0  0  0
  135.6320  135.2680  151.1200 C   0  0  0  0  0  3  0  0  0  0  0  0
  136.4140  136.1180  151.9200 C   0  0  0  0  0  0  0  0  0  0  0  0
  136.3130  135.9980  153.3170 C   0  0  0  0  0  3  0  0  0  0  0  0
  135.4510  135.0640  153.8980 C   0  0  0  0  0  3  0  0  0  0  0  0
  134.6840  134.2340  153.0830 C   0  0  0  0  0  0  0  0  0  0  0  0
  132.8370  134.0150  150.3390 C   0  0  0  0  0  1  0  0  0  0  0  0
  133.9800  133.4590  150.9730 O   0  0  0  0  0  0  0  0  0  0  0  0
  133.8350  133.3180  153.6460 O   0  0  0  0  0  0  0  0  0  0  0  0
  133.0270  133.1060  153.2210 H   0  0  0  0  0  0  0  0  0  0  0  0
  141.5340  139.2890  152.6710 N   0  0  0  0  0  0  0  0  0  0  0  0
  142.8370  138.8780  152.8330 C   0  0  0  0  0  0  0  0  0  0  0  0
  143.1320  137.8410  153.4200 O   0  0  0  0  0  0  0  0  0  0  0  0
  141.3540  140.1290  152.1930 H   0  0  0  0  0  0  0  0  0  0  0  0
  143.8190  139.7730  152.2220 C   0  0  0  0  0  0  0  0  0  0  0  0
  143.7080  140.2630  150.9240 N   0  0  0  0  0  0  0  0  0  0  0  0
  144.7860  140.9990  150.7440 C   0  0  0  0  0  3  0  0  0  0  0  0
  145.5880  141.0080  151.8550 N   0  0  0  0  0  0  0  0  0  0  0  0
  146.8030  141.6410  152.0380 C   0  0  0  0  0  0  0  0  0  0  0  0
  147.2830  142.3080  151.1360 O   0  0  0  0  0  0  0  0  0  0  0  0
  147.3060  141.3860  153.3030 N   0  0  0  0  0  0  0  0  0  0  0  0
  148.5800  141.9440  153.7070 C   0  0  0  0  0  1  0  0  0  0  0  0
  146.6730  140.6220  154.2590 N   0  0  0  0  0  0  0  0  0  0  0  0
  145.5650  140.0930  154.0160 N   0  0  0  0  0  0  0  0  0  0  0  0
  144.9810  140.2450  152.8110 C   0  0  0  0  0  0  0  0  0  0  0  0
  2  5  1  0  0  0  0
  3  2  1  0  0  0  0
  3  1  1  0  0  0  0
  4  3  2  0  0  0  0
  6  9  1  0  0  0  0
  6  2  1  0  0  0  0
  7 12  1  0  0  0  0
  8  7  2  0  0  0  0
  8  9  1  0  0  0  0
  9 10  2  0  0  0  0
 10 11  1  0  0  0  0
 12 15  1  0  0  0  0
 12 11  2  0  0  0  0
 13 14  1  0  0  0  0
 14  7  1  0  0  0  0
 16 15  1  0  0  0  0
 17 18  1  0  0  0  0
 17  1  1  0  0  0  0
 18 19  2  0  0  0  0
 20 17  1  0  0  0  0
 21 31  2  0  0  0  0
 21 18  1  0  0  0  0
 22 21  1  0  0  0  0
 23 22  2  0  0  0  0
 23 24  1  0  0  0  0
 24 25  1  0  0  0  0
 24 31  1  0  0  0  0
 25 27  1  0  0  0  0
 26 25  2  0  0  0  0
 27 28  1  0  0  0  0
 27 29  1  0  0  0  0
 30 29  2  0  0  0  0
 31 30  1  0  0  0  0
M  END
>  <MODEL>
6

>  <REMARK>
 VINA RESULT:    -7.546      2.917      5.057
 INTER + INTRA:         -11.186
 INTER:                 -10.615
 INTRA:                  -0.571
 UNBOUND:                -0.773
  Name = CHEMBL4440238
  9 active torsions:
  status: ('A' for Active; 'I' for Inactive)
    1  A    between atoms: C_1  and  O_2
    2  A    between atoms: O_2  and  C_3
    3  A    between atoms: C_5  and  C_6
    4  A    between atoms: C_6  and  N_7
    5  A    between atoms: C_8  and  C_10
    6  A    between atoms: C_10  and  N_11
    7  A    between atoms: C_12  and  C_14
    8  A    between atoms: N_20  and  C_21
    9  A    between atoms: C_27  and  O_28
                            x       y       z     vdW  Elec       q    Type
                         _______ _______ _______ _____ _____    ______ ____

>  <TORSDO>
F 7

>  <SCORE>
-7.546

>  <RMSD_LB>
2.917

>  <RMSD_UB>
5.057

$$$$
CHEMBL4440238
 OpenBabel10172500373D

 31 33  0  0  0  0  0  0  0  0999 V2000
  133.4620  133.9870  151.1190 C   0  0  0  0  0  2  0  0  0  0  0  0
  135.7150  134.8470  150.6890 N   0  0  0  0  0  0  0  0  0  0  0  0
  134.6280  134.1950  150.1470 C   0  0  0  0  0  0  0  0  0  0  0  0
  134.5580  133.8520  148.9700 O   0  0  0  0  0  0  0  0  0  0  0  0
  135.6710  135.1370  151.6290 H   0  0  0  0  0  0  0  0  0  0  0  0
  136.9200  135.1220  149.9300 C   0  0  0  0  0  2  0  0  0  0  0  0
  138.6520  138.4080  150.9480 C   0  0  0  0  0  0  0  0  0  0  0  0
  138.2500  137.0660  150.9460 C   0  0  0  0  0  3  0  0  0  0  0  0
  137.3790  136.5650  149.9630 C   0  0  0  0  0  0  0  0  0  0  0  0
  136.9150  137.4470  148.9720 C   0  0  0  0  0  3  0  0  0  0  0  0
  137.3020  138.7900  148.9650 C   0  0  0  0  0  3  0  0  0  0  0  0
  138.1650  139.2630  149.9520 C   0  0  0  0  0  0  0  0  0  0  0  0
  140.5380  138.1330  152.3670 C   0  0  0  0  0  1  0  0  0  0  0  0
  139.5010  138.9660  151.8690 O   0  0  0  0  0  0  0  0  0  0  0  0
  138.5460  140.5790  149.9530 O   0  0  0  0  0  0  0  0  0  0  0  0
  139.4550  140.8030  149.9140 H   0  0  0  0  0  0  0  0  0  0  0  0
  133.9000  134.0430  152.4980 N   0  0  0  0  0  0  0  0  0  0  0  0
  134.0140  135.2360  153.1740 C   0  0  0  0  0  0  0  0  0  0  0  0
  133.7530  136.3160  152.6540 O   0  0  0  0  0  0  0  0  0  0  0  0
  134.1220  133.2060  152.9630 H   0  0  0  0  0  0  0  0  0  0  0  0
  134.4450  135.0870  154.5650 C   0  0  0  0  0  0  0  0  0  0  0  0
  134.0510  134.0320  155.3810 N   0  0  0  0  0  0  0  0  0  0  0  0
  134.6210  134.2700  156.5460 C   0  0  0  0  0  3  0  0  0  0  0  0
  135.3590  135.4250  156.5230 N   0  0  0  0  0  0  0  0  0  0  0  0
  136.0750  136.0110  157.5500 C   0  0  0  0  0  0  0  0  0  0  0  0
  136.1090  135.4810  158.6480 O   0  0  0  0  0  0  0  0  0  0  0  0
  136.6700  137.1880  157.1260 N   0  0  0  0  0  0  0  0  0  0  0  0
  137.4640  137.9760  158.0460 C   0  0  0  0  0  1  0  0  0  0  0  0
  136.5790  137.6970  155.8490 N   0  0  0  0  0  0  0  0  0  0  0  0
  135.9200  137.0950  154.9720 N   0  0  0  0  0  0  0  0  0  0  0  0
  135.2710  135.9500  155.2660 C   0  0  0  0  0  0  0  0  0  0  0  0
  1 17  1  0  0  0  0
  2  5  1  0  0  0  0
  3  2  1  0  0  0  0
  3  1  1  0  0  0  0
  4  3  2  0  0  0  0
  6  9  1  0  0  0  0
  6  2  1  0  0  0  0
  7 14  1  0  0  0  0
  8  7  1  0  0  0  0
  9  8  2  0  0  0  0
 10  9  1  0  0  0  0
 11 10  2  0  0  0  0
 11 12  1  0  0  0  0
 12 15  1  0  0  0  0
 12  7  2  0  0  0  0
 14 13  1  0  0  0  0
 16 15  1  0  0  0  0
 17 20  1  0  0  0  0
 17 18  1  0  0  0  0
 18 21  1  0  0  0  0
 19 18  2  0  0  0  0
 21 31  2  0  0  0  0
 21 22  1  0  0  0  0
 22 23  2  0  0  0  0
 24 23  1  0  0  0  0
 24 25  1  0  0  0  0
 25 26  2  0  0  0  0
 27 25  1  0  0  0  0
 27 28  1  0  0  0  0
 29 27  1  0  0  0  0
 30 31  1  0  0  0  0
 30 29  2  0  0  0  0
 31 24  1  0  0  0  0
M  END
>  <MODEL>
7

>  <REMARK>
 VINA RESULT:    -7.525      2.953      6.079
 INTER + INTRA:         -11.157
 INTER:                 -10.427
 INTRA:                  -0.730
 UNBOUND:                -0.773
  Name = CHEMBL4440238
  9 active torsions:
  status: ('A' for Active; 'I' for Inactive)
    1  A    between atoms: C_1  and  O_2
    2  A    between atoms: O_2  and  C_3
    3  A    between atoms: C_5  and  C_6
    4  A    between atoms: C_6  and  N_7
    5  A    between atoms: C_8  and  C_10
    6  A    between atoms: C_10  and  N_11
    7  A    between atoms: C_12  and  C_14
    8  A    between atoms: N_20  and  C_21
    9  A    between atoms: C_27  and  O_28
                            x       y       z     vdW  Elec       q    Type
                         _______ _______ _______ _____ _____    ______ ____

>  <TORSDO>
F 7

>  <SCORE>
-7.525

>  <RMSD_LB>
2.953

>  <RMSD_UB>
6.079

$$$$
CHEMBL4440238
 OpenBabel10172500373D

 31 33  0  0  0  0  0  0  0  0999 V2000
  132.6400  135.4610  150.8130 C   0  0  0  0  0  2  0  0  0  0  0  0
  132.8140  134.3350  148.6450 N   0  0  0  0  0  0  0  0  0  0  0  0
  133.0140  134.2150  150.0040 C   0  0  0  0  0  0  0  0  0  0  0  0
  133.4050  133.1850  150.5450 O   0  0  0  0  0  0  0  0  0  0  0  0
  132.4470  135.1790  148.2940 H   0  0  0  0  0  0  0  0  0  0  0  0
  133.1240  133.2690  147.7120 C   0  0  0  0  0  2  0  0  0  0  0  0
  136.8540  133.6160  146.8190 C   0  0  0  0  0  0  0  0  0  0  0  0
  135.6790  133.4430  147.5610 C   0  0  0  0  0  3  0  0  0  0  0  0
  134.4160  133.4480  146.9440 C   0  0  0  0  0  0  0  0  0  0  0  0
  134.3570  133.6310  145.5510 C   0  0  0  0  0  3  0  0  0  0  0  0
  135.5210  133.8110  144.7990 C   0  0  0  0  0  3  0  0  0  0  0  0
  136.7600  133.8040  145.4350 C   0  0  0  0  0  0  0  0  0  0  0  0
  138.4780  134.7460  148.1350 C   0  0  0  0  0  1  0  0  0  0  0  0
  138.1180  133.6180  147.3510 O   0  0  0  0  0  0  0  0  0  0  0  0
  137.9050  133.9840  144.7040 O   0  0  0  0  0  0  0  0  0  0  0  0
  138.3970  134.7760  144.7920 H   0  0  0  0  0  0  0  0  0  0  0  0
  133.4610  135.5940  151.9980 N   0  0  0  0  0  0  0  0  0  0  0  0
  134.7740  135.9980  151.9290 C   0  0  0  0  0  0  0  0  0  0  0  0
  135.3250  136.2700  150.8660 O   0  0  0  0  0  0  0  0  0  0  0  0
  133.0700  135.3890  152.8770 H   0  0  0  0  0  0  0  0  0  0  0  0
  135.4320  136.0990  153.2320 C   0  0  0  0  0  0  0  0  0  0  0  0
  136.7000  136.6420  153.4120 N   0  0  0  0  0  0  0  0  0  0  0  0
  136.9400  136.5280  154.7030 C   0  0  0  0  0  3  0  0  0  0  0  0
  135.8960  135.9370  155.3640 N   0  0  0  0  0  0  0  0  0  0  0  0
  135.7880  135.6280  156.7070 C   0  0  0  0  0  0  0  0  0  0  0  0
  136.7030  135.8980  157.4680 O   0  0  0  0  0  0  0  0  0  0  0  0
  134.5750  135.0160  156.9760 N   0  0  0  0  0  0  0  0  0  0  0  0
  134.2540  134.5960  158.3250 C   0  0  0  0  0  1  0  0  0  0  0  0
  133.5980  134.7660  156.0390 N   0  0  0  0  0  0  0  0  0  0  0  0
  133.7700  135.0900  154.8420 N   0  0  0  0  0  0  0  0  0  0  0  0
  134.9200  135.6710  154.4460 C   0  0  0  0  0  0  0  0  0  0  0  0
  1 17  1  0  0  0  0
  2  3  1  0  0  0  0
  3  4  2  0  0  0  0
  3  1  1  0  0  0  0
  5  2  1  0  0  0  0
  6  2  1  0  0  0  0
  7 14  1  0  0  0  0
  7  8  1  0  0  0  0
  9  8  2  0  0  0  0
  9  6  1  0  0  0  0
 10  9  1  0  0  0  0
 11 12  1  0  0  0  0
 11 10  2  0  0  0  0
 12  7  2  0  0  0  0
 14 13  1  0  0  0  0
 15 16  1  0  0  0  0
 15 12  1  0  0  0  0
 17 20  1  0  0  0  0
 18 17  1  0  0  0  0
 18 21  1  0  0  0  0
 19 18  2  0  0  0  0
 21 22  1  0  0  0  0
 21 31  2  0  0  0  0
 22 23  2  0  0  0  0
 23 24  1  0  0  0  0
 24 25  1  0  0  0  0
 25 27  1  0  0  0  0
 25 26  2  0  0  0  0
 27 28  1  0  0  0  0
 29 27  1  0  0  0  0
 30 29  2  0  0  0  0
 31 30  1  0  0  0  0
 31 24  1  0  0  0  0
M  END
>  <MODEL>
8

>  <REMARK>
 VINA RESULT:    -7.489      3.948      6.045
 INTER + INTRA:         -11.108
 INTER:                 -10.235
 INTRA:                  -0.873
 UNBOUND:                -0.773
  Name = CHEMBL4440238
  9 active torsions:
  status: ('A' for Active; 'I' for Inactive)
    1  A    between atoms: C_1  and  O_2
    2  A    between atoms: O_2  and  C_3
    3  A    between atoms: C_5  and  C_6
    4  A    between atoms: C_6  and  N_7
    5  A    between atoms: C_8  and  C_10
    6  A    between atoms: C_10  and  N_11
    7  A    between atoms: C_12  and  C_14
    8  A    between atoms: N_20  and  C_21
    9  A    between atoms: C_27  and  O_28
                            x       y       z     vdW  Elec       q    Type
                         _______ _______ _______ _____ _____    ______ ____

>  <TORSDO>
F 7

>  <SCORE>
-7.489

>  <RMSD_LB>
3.948

>  <RMSD_UB>
6.045

$$$$
CHEMBL4440238
 OpenBabel10172500373D

 31 33  0  0  0  0  0  0  0  0999 V2000
  140.2730  138.6160  151.7020 C   0  0  0  0  0  2  0  0  0  0  0  0
  138.3760  137.8510  153.0500 N   0  0  0  0  0  0  0  0  0  0  0  0
  139.6550  138.3650  153.0810 C   0  0  0  0  0  0  0  0  0  0  0  0
  140.2450  138.6560  154.1170 O   0  0  0  0  0  0  0  0  0  0  0  0
  137.9510  137.6930  152.1750 H   0  0  0  0  0  0  0  0  0  0  0  0
  137.6320  137.5330  154.2530 C   0  0  0  0  0  2  0  0  0  0  0  0
  134.9760  134.8440  155.0010 C   0  0  0  0  0  0  0  0  0  0  0  0
  135.9200  135.8630  155.1840 C   0  0  0  0  0  3  0  0  0  0  0  0
  136.6030  136.4330  154.0950 C   0  0  0  0  0  0  0  0  0  0  0  0
  136.3140  135.9550  152.8050 C   0  0  0  0  0  3  0  0  0  0  0  0
  135.3800  134.9350  152.6070 C   0  0  0  0  0  3  0  0  0  0  0  0
  134.7190  134.3850  153.7030 C   0  0  0  0  0  0  0  0  0  0  0  0
  134.5840  134.6510  157.3360 C   0  0  0  0  0  1  0  0  0  0  0  0
  134.2710  134.2450  156.0120 O   0  0  0  0  0  0  0  0  0  0  0  0
  133.8040  133.3820  153.5180 O   0  0  0  0  0  0  0  0  0  0  0  0
  134.0500  132.6030  153.0590 H   0  0  0  0  0  0  0  0  0  0  0  0
  141.7010  138.8380  151.7890 N   0  0  0  0  0  0  0  0  0  0  0  0
  142.3570  139.6830  150.9240 C   0  0  0  0  0  0  0  0  0  0  0  0
  141.7750  140.2960  150.0340 O   0  0  0  0  0  0  0  0  0  0  0  0
  142.2160  138.3720  152.4850 H   0  0  0  0  0  0  0  0  0  0  0  0
  143.7910  139.7990  151.1860 C   0  0  0  0  0  0  0  0  0  0  0  0
  144.7170  140.1900  150.2230 N   0  0  0  0  0  0  0  0  0  0  0  0
  145.8840  140.1460  150.8350 C   0  0  0  0  0  3  0  0  0  0  0  0
  145.7600  139.7430  152.1390 N   0  0  0  0  0  0  0  0  0  0  0  0
  146.7520  139.5540  153.0820 C   0  0  0  0  0  0  0  0  0  0  0  0
  147.9180  139.7640  152.7890 O   0  0  0  0  0  0  0  0  0  0  0  0
  146.2150  139.1230  154.2830 N   0  0  0  0  0  0  0  0  0  0  0  0
  147.0800  138.8510  155.4130 C   0  0  0  0  0  1  0  0  0  0  0  0
  144.8710  138.9270  154.5160 N   0  0  0  0  0  0  0  0  0  0  0  0
  144.0340  139.1350  153.6080 N   0  0  0  0  0  0  0  0  0  0  0  0
  144.4330  139.5330  152.3840 C   0  0  0  0  0  0  0  0  0  0  0  0
  1 17  1  0  0  0  0
  1  3  1  0  0  0  0
  2  3  1  0  0  0  0
  2  6  1  0  0  0  0
  3  4  2  0  0  0  0
  5  2  1  0  0  0  0
  7  8  1  0  0  0  0
  7 14  1  0  0  0  0
  9  6  1  0  0  0  0
  9  8  2  0  0  0  0
 10  9  1  0  0  0  0
 11 10  2  0  0  0  0
 11 12  1  0  0  0  0
 12  7  2  0  0  0  0
 14 13  1  0  0  0  0
 15 12  1  0  0  0  0
 16 15  1  0  0  0  0
 17 20  1  0  0  0  0
 18 21  1  0  0  0  0
 18 17  1  0  0  0  0
 19 18  2  0  0  0  0
 21 31  2  0  0  0  0
 22 23  2  0  0  0  0
 22 21  1  0  0  0  0
 23 24  1  0  0  0  0
 24 31  1  0  0  0  0
 24 25  1  0  0  0  0
 25 27  1  0  0  0  0
 26 25  2  0  0  0  0
 27 29  1  0  0  0  0
 27 28  1  0  0  0  0
 30 29  2  0  0  0  0
 31 30  1  0  0  0  0
M  END
>  <MODEL>
9

>  <REMARK>
 VINA RESULT:    -7.393      2.849      5.351
 INTER + INTRA:         -10.975
 INTER:                 -10.202
 INTRA:                  -0.773
 UNBOUND:                -0.773
  Name = CHEMBL4440238
  9 active torsions:
  status: ('A' for Active; 'I' for Inactive)
    1  A    between atoms: C_1  and  O_2
    2  A    between atoms: O_2  and  C_3
    3  A    between atoms: C_5  and  C_6
    4  A    between atoms: C_6  and  N_7
    5  A    between atoms: C_8  and  C_10
    6  A    between atoms: C_10  and  N_11
    7  A    between atoms: C_12  and  C_14
    8  A    between atoms: N_20  and  C_21
    9  A    between atoms: C_27  and  O_28
                            x       y       z     vdW  Elec       q    Type
                         _______ _______ _______ _____ _____    ______ ____

>  <TORSDO>
F 7

>  <SCORE>
-7.393

>  <RMSD_LB>
2.849

>  <RMSD_UB>
5.351

$$$$
