CHEMBL2268808
 OpenBabel10172500133D

 26 26  0  0  0  0  0  0  0  0999 V2000
  143.3540  139.8240  149.4730 C   0  0  0  0  0  0  0  0  0  0  0  0
  142.3000  140.4040  149.6930 O   0  0  0  0  0  0  0  0  0  0  0  0
  143.4130  138.5010  149.0840 N   0  0  0  0  0  0  0  0  0  0  0  0
  144.2820  138.0780  148.8940 H   0  0  0  0  0  0  0  0  0  0  0  0
  144.7090  140.5030  149.5700 C   0  0  0  0  0  2  0  0  0  0  0  0
  144.8080  141.2810  150.8800 C   0  0  0  0  0  2  0  0  0  0  0  0
  145.7810  142.4520  150.7920 C   0  0  0  0  0  2  0  0  0  0  0  0
  146.9300  142.2570  151.7800 C   0  0  0  0  0  2  0  0  0  0  0  0
  146.4270  142.2770  153.2180 C   0  0  0  0  0  2  0  0  0  0  0  0
  147.5120  141.8040  154.1810 C   0  0  0  0  0  2  0  0  0  0  0  0
  147.8560  140.3390  153.9300 C   0  0  0  0  0  2  0  0  0  0  0  0
  146.6720  139.4370  154.2640 C   0  0  0  0  0  2  0  0  0  0  0  0
  147.3910  138.4750  152.0620 C   0  0  0  0  0  1  0  0  0  0  0  0
  146.2480  138.6140  153.0520 C   0  0  0  0  0  2  0  0  0  0  0  0
  142.1830  137.7380  148.9580 C   0  0  0  0  0  2  0  0  0  0  0  0
  142.0490  136.6500  150.0230 C   0  0  0  0  0  2  0  0  0  0  0  0
  141.7810  137.2120  151.3970 C   0  0  0  0  0  0  0  0  0  0  0  0
  142.8190  137.3500  152.3200 C   0  0  0  0  0  3  0  0  0  0  0  0
  142.5770  137.8800  153.5920 C   0  0  0  0  0  3  0  0  0  0  0  0
  141.2960  138.3090  153.9650 C   0  0  0  0  0  0  0  0  0  0  0  0
  140.2520  138.2150  153.0260 C   0  0  0  0  0  0  0  0  0  0  0  0
  140.4970  137.6360  151.7680 C   0  0  0  0  0  3  0  0  0  0  0  0
  140.9960  138.7930  155.2100 O   0  0  0  0  0  0  0  0  0  0  0  0
  140.6040  137.8740  156.2210 C   0  0  0  0  0  1  0  0  0  0  0  0
  138.9460  138.6080  153.1950 O   0  0  0  0  0  0  0  0  0  0  0  0
  137.9890  137.5810  153.4390 C   0  0  0  0  0  1  0  0  0  0  0  0
  1  5  1  0  0  0  0
  1  2  2  0  0  0  0
  3  1  1  0  0  0  0
  4  3  1  0  0  0  0
  5  6  1  0  0  0  0
  7  6  1  0  0  0  0
  7  8  1  0  0  0  0
  8  9  1  0  0  0  0
  9 10  1  0  0  0  0
 11 10  1  0  0  0  0
 11 12  1  0  0  0  0
 13 14  1  0  0  0  0
 14 12  1  0  0  0  0
 15  3  1  0  0  0  0
 15 16  1  0  0  0  0
 16 17  1  0  0  0  0
 17 22  2  0  0  0  0
 17 18  1  0  0  0  0
 18 19  2  0  0  0  0
 19 20  1  0  0  0  0
 20 23  1  0  0  0  0
 21 25  1  0  0  0  0
 21 20  2  0  0  0  0
 22 21  1  0  0  0  0
 23 24  1  0  0  0  0
 25 26  1  0  0  0  0
M  END
>  <MODEL>
1

>  <REMARK>
 VINA RESULT:    -6.593      0.000      0.000
 INTER + INTRA:         -13.095
 INTER:                 -10.861
 INTRA:                  -2.234
 UNBOUND:                -1.106
  Name = CHEMBL2268808
  17 active torsions:
  status: ('A' for Active; 'I' for Inactive)
    1  A    between atoms: C_1  and  C_2
    2  A    between atoms: C_2  and  C_3
    3  A    between atoms: C_3  and  C_4
    4  A    between atoms: C_4  and  C_5
    5  A    between atoms: C_5  and  C_6
    6  A    between atoms: C_6  and  C_7
    7  A    between atoms: C_7  and  C_8
    8  A    between atoms: C_8  and  C_9
    9  A    between atoms: C_9  and  C_10
   10  A    between atoms: C_10  and  C_11
   11  A    between atoms: N_13  and  C_14
   12  A    between atoms: C_14  and  C_15
   13  A    between atoms: C_15  and  C_16
   14  A    between atoms: C_19  and  O_20
   15  A    between atoms: O_20  and  C_21
   16  A    between atoms: C_22  and  O_23
   17  A    between atoms: O_23  and  C_24
                            x       y       z     vdW  Elec       q    Type
                         _______ _______ _______ _____ _____    ______ ____

>  <TORSDO>
F 14

>  <SCORE>
-6.593

>  <RMSD_LB>
0.000

>  <RMSD_UB>
0.000

$$$$
CHEMBL2268808
 OpenBabel10172500133D

 26 26  0  0  0  0  0  0  0  0999 V2000
  134.0700  134.5040  151.8320 C   0  0  0  0  0  0  0  0  0  0  0  0
  133.5310  135.5950  151.7060 O   0  0  0  0  0  0  0  0  0  0  0  0
  134.9680  134.2270  152.8430 N   0  0  0  0  0  0  0  0  0  0  0  0
  135.3620  133.3280  152.9230 H   0  0  0  0  0  0  0  0  0  0  0  0
  133.7840  133.3280  150.9160 C   0  0  0  0  0  2  0  0  0  0  0  0
  132.7040  133.7060  149.9060 C   0  0  0  0  0  2  0  0  0  0  0  0
  133.0830  133.3330  148.4770 C   0  0  0  0  0  2  0  0  0  0  0  0
  134.1900  132.2800  148.4840 C   0  0  0  0  0  2  0  0  0  0  0  0
  135.3020  132.6460  147.5080 C   0  0  0  0  0  2  0  0  0  0  0  0
  135.6920  134.1140  147.6540 C   0  0  0  0  0  2  0  0  0  0  0  0
  137.1880  134.3010  147.4160 C   0  0  0  0  0  2  0  0  0  0  0  0
  137.8120  135.1530  148.5170 C   0  0  0  0  0  2  0  0  0  0  0  0
  137.1690  136.2460  150.6810 C   0  0  0  0  0  1  0  0  0  0  0  0
  137.0540  134.9940  149.8310 C   0  0  0  0  0  2  0  0  0  0  0  0
  135.3280  135.2720  153.7860 C   0  0  0  0  0  2  0  0  0  0  0  0
  135.1490  134.8440  155.2420 C   0  0  0  0  0  2  0  0  0  0  0  0
  135.8650  135.7560  156.2080 C   0  0  0  0  0  0  0  0  0  0  0  0
  135.9330  135.4360  157.5650 C   0  0  0  0  0  3  0  0  0  0  0  0
  136.6040  136.2740  158.4620 C   0  0  0  0  0  3  0  0  0  0  0  0
  137.2440  137.4400  158.0220 C   0  0  0  0  0  0  0  0  0  0  0  0
  137.2190  137.7480  156.6490 C   0  0  0  0  0  0  0  0  0  0  0  0
  136.5000  136.9240  155.7650 C   0  0  0  0  0  3  0  0  0  0  0  0
  137.8760  138.3160  158.8640 O   0  0  0  0  0  0  0  0  0  0  0  0
  137.7950  138.0900  160.2650 C   0  0  0  0  0  1  0  0  0  0  0  0
  137.8090  138.8220  156.0290 O   0  0  0  0  0  0  0  0  0  0  0  0
  138.3300  138.6070  154.7200 C   0  0  0  0  0  1  0  0  0  0  0  0
  1  3  1  0  0  0  0
  2  1  2  0  0  0  0
  3  4  1  0  0  0  0
  3 15  1  0  0  0  0
  5  1  1  0  0  0  0
  6  5  1  0  0  0  0
  7  8  1  0  0  0  0
  7  6  1  0  0  0  0
  9 10  1  0  0  0  0
  9  8  1  0  0  0  0
 11 10  1  0  0  0  0
 11 12  1  0  0  0  0
 12 14  1  0  0  0  0
 14 13  1  0  0  0  0
 15 16  1  0  0  0  0
 16 17  1  0  0  0  0
 17 18  1  0  0  0  0
 18 19  2  0  0  0  0
 20 19  1  0  0  0  0
 20 23  1  0  0  0  0
 21 20  2  0  0  0  0
 22 17  2  0  0  0  0
 22 21  1  0  0  0  0
 23 24  1  0  0  0  0
 25 21  1  0  0  0  0
 26 25  1  0  0  0  0
M  END
>  <MODEL>
2

>  <REMARK>
 VINA RESULT:    -6.500      6.959     10.515
 INTER + INTRA:         -12.925
 INTER:                 -11.459
 INTRA:                  -1.466
 UNBOUND:                -1.106
  Name = CHEMBL2268808
  17 active torsions:
  status: ('A' for Active; 'I' for Inactive)
    1  A    between atoms: C_1  and  C_2
    2  A    between atoms: C_2  and  C_3
    3  A    between atoms: C_3  and  C_4
    4  A    between atoms: C_4  and  C_5
    5  A    between atoms: C_5  and  C_6
    6  A    between atoms: C_6  and  C_7
    7  A    between atoms: C_7  and  C_8
    8  A    between atoms: C_8  and  C_9
    9  A    between atoms: C_9  and  C_10
   10  A    between atoms: C_10  and  C_11
   11  A    between atoms: N_13  and  C_14
   12  A    between atoms: C_14  and  C_15
   13  A    between atoms: C_15  and  C_16
   14  A    between atoms: C_19  and  O_20
   15  A    between atoms: O_20  and  C_21
   16  A    between atoms: C_22  and  O_23
   17  A    between atoms: O_23  and  C_24
                            x       y       z     vdW  Elec       q    Type
                         _______ _______ _______ _____ _____    ______ ____

>  <TORSDO>
F 14

>  <SCORE>
-6.500

>  <RMSD_LB>
6.959

>  <RMSD_UB>
10.515

$$$$
CHEMBL2268808
 OpenBabel10172500133D

 26 26  0  0  0  0  0  0  0  0999 V2000
  146.7880  140.1610  153.8760 C   0  0  0  0  0  0  0  0  0  0  0  0
  145.7870  140.7780  154.2110 O   0  0  0  0  0  0  0  0  0  0  0  0
  146.8430  138.7820  153.8550 N   0  0  0  0  0  0  0  0  0  0  0  0
  147.6620  138.3230  153.5560 H   0  0  0  0  0  0  0  0  0  0  0  0
  148.0650  140.8410  153.4170 C   0  0  0  0  0  2  0  0  0  0  0  0
  148.1290  140.8520  151.8920 C   0  0  0  0  0  2  0  0  0  0  0  0
  148.0380  142.2600  151.3140 C   0  0  0  0  0  2  0  0  0  0  0  0
  146.8560  142.3590  150.3500 C   0  0  0  0  0  2  0  0  0  0  0  0
  145.5420  142.5090  151.1070 C   0  0  0  0  0  2  0  0  0  0  0  0
  144.6850  141.2550  150.9600 C   0  0  0  0  0  2  0  0  0  0  0  0
  145.0010  140.5340  149.6530 C   0  0  0  0  0  2  0  0  0  0  0  0
  145.3730  139.0780  149.9100 C   0  0  0  0  0  2  0  0  0  0  0  0
  146.8060  139.1230  147.8520 C   0  0  0  0  0  1  0  0  0  0  0  0
  146.7410  138.7480  149.3210 C   0  0  0  0  0  2  0  0  0  0  0  0
  145.6850  138.0130  154.2760 C   0  0  0  0  0  2  0  0  0  0  0  0
  144.9790  137.3190  153.1110 C   0  0  0  0  0  2  0  0  0  0  0  0
  143.5050  137.6390  153.0510 C   0  0  0  0  0  0  0  0  0  0  0  0
  142.7800  137.4180  151.8790 C   0  0  0  0  0  3  0  0  0  0  0  0
  141.4110  137.7040  151.8230 C   0  0  0  0  0  3  0  0  0  0  0  0
  140.7290  138.1950  152.9430 C   0  0  0  0  0  0  0  0  0  0  0  0
  141.4420  138.3800  154.1420 C   0  0  0  0  0  0  0  0  0  0  0  0
  142.8260  138.1350  154.1730 C   0  0  0  0  0  3  0  0  0  0  0  0
  139.4010  138.5320  152.9280 O   0  0  0  0  0  0  0  0  0  0  0  0
  138.4790  137.6340  152.3270 C   0  0  0  0  0  1  0  0  0  0  0  0
  140.9440  138.8210  155.3440 O   0  0  0  0  0  0  0  0  0  0  0  0
  140.4660  137.8290  156.2490 C   0  0  0  0  0  1  0  0  0  0  0  0
  1  2  2  0  0  0  0
  3  1  1  0  0  0  0
  3 15  1  0  0  0  0
  4  3  1  0  0  0  0
  5  1  1  0  0  0  0
  6  5  1  0  0  0  0
  7  6  1  0  0  0  0
  8  9  1  0  0  0  0
  8  7  1  0  0  0  0
 10  9  1  0  0  0  0
 11 12  1  0  0  0  0
 11 10  1  0  0  0  0
 13 14  1  0  0  0  0
 14 12  1  0  0  0  0
 16 15  1  0  0  0  0
 17 16  1  0  0  0  0
 17 22  1  0  0  0  0
 18 17  2  0  0  0  0
 19 18  1  0  0  0  0
 19 20  2  0  0  0  0
 20 21  1  0  0  0  0
 21 22  2  0  0  0  0
 21 25  1  0  0  0  0
 23 20  1  0  0  0  0
 24 23  1  0  0  0  0
 25 26  1  0  0  0  0
M  END
>  <MODEL>
3

>  <REMARK>
 VINA RESULT:    -6.490      1.992      3.919
 INTER + INTRA:         -12.907
 INTER:                 -10.530
 INTRA:                  -2.377
 UNBOUND:                -1.106
  Name = CHEMBL2268808
  17 active torsions:
  status: ('A' for Active; 'I' for Inactive)
    1  A    between atoms: C_1  and  C_2
    2  A    between atoms: C_2  and  C_3
    3  A    between atoms: C_3  and  C_4
    4  A    between atoms: C_4  and  C_5
    5  A    between atoms: C_5  and  C_6
    6  A    between atoms: C_6  and  C_7
    7  A    between atoms: C_7  and  C_8
    8  A    between atoms: C_8  and  C_9
    9  A    between atoms: C_9  and  C_10
   10  A    between atoms: C_10  and  C_11
   11  A    between atoms: N_13  and  C_14
   12  A    between atoms: C_14  and  C_15
   13  A    between atoms: C_15  and  C_16
   14  A    between atoms: C_19  and  O_20
   15  A    between atoms: O_20  and  C_21
   16  A    between atoms: C_22  and  O_23
   17  A    between atoms: O_23  and  C_24
                            x       y       z     vdW  Elec       q    Type
                         _______ _______ _______ _____ _____    ______ ____

>  <TORSDO>
F 14

>  <SCORE>
-6.490

>  <RMSD_LB>
1.992

>  <RMSD_UB>
3.919

$$$$
CHEMBL2268808
 OpenBabel10172500133D

 26 26  0  0  0  0  0  0  0  0999 V2000
  133.8470  136.0150  146.2530 C   0  0  0  0  0  0  0  0  0  0  0  0
  133.4110  136.8100  147.0740 O   0  0  0  0  0  0  0  0  0  0  0  0
  133.6130  134.6570  146.3300 N   0  0  0  0  0  0  0  0  0  0  0  0
  133.9640  134.0540  145.6340 H   0  0  0  0  0  0  0  0  0  0  0  0
  134.6630  136.4380  145.0450 C   0  0  0  0  0  2  0  0  0  0  0  0
  135.4760  135.2550  144.5260 C   0  0  0  0  0  2  0  0  0  0  0  0
  136.7660  135.6890  143.8380 C   0  0  0  0  0  2  0  0  0  0  0  0
  137.6090  134.4660  143.4790 C   0  0  0  0  0  2  0  0  0  0  0  0
  136.8470  133.5280  142.5510 C   0  0  0  0  0  2  0  0  0  0  0  0
  137.1560  132.0690  142.8790 C   0  0  0  0  0  2  0  0  0  0  0  0
  136.2070  131.5440  143.9520 C   0  0  0  0  0  2  0  0  0  0  0  0
  136.9370  131.3490  145.2770 C   0  0  0  0  0  2  0  0  0  0  0  0
  137.4270  133.1440  146.9590 C   0  0  0  0  0  1  0  0  0  0  0  0
  136.3560  132.2490  146.3620 C   0  0  0  0  0  2  0  0  0  0  0  0
  132.8470  134.1250  147.4430 C   0  0  0  0  0  2  0  0  0  0  0  0
  133.7040  133.3260  148.4240 C   0  0  0  0  0  2  0  0  0  0  0  0
  134.0400  134.1070  149.6710 C   0  0  0  0  0  0  0  0  0  0  0  0
  133.3540  133.8660  150.8630 C   0  0  0  0  0  3  0  0  0  0  0  0
  133.6690  134.5800  152.0240 C   0  0  0  0  0  3  0  0  0  0  0  0
  134.6930  135.5360  152.0290 C   0  0  0  0  0  0  0  0  0  0  0  0
  135.4200  135.7550  150.8440 C   0  0  0  0  0  0  0  0  0  0  0  0
  135.0620  135.0660  149.6720 C   0  0  0  0  0  3  0  0  0  0  0  0
  135.0120  136.2940  153.1250 O   0  0  0  0  0  0  0  0  0  0  0  0
  135.9010  135.7500  154.0920 C   0  0  0  0  0  1  0  0  0  0  0  0
  136.4700  136.6220  150.6620 O   0  0  0  0  0  0  0  0  0  0  0  0
  136.6750  137.1220  149.3440 C   0  0  0  0  0  1  0  0  0  0  0  0
  1  3  1  0  0  0  0
  1  2  2  0  0  0  0
  3 15  1  0  0  0  0
  4  3  1  0  0  0  0
  5  1  1  0  0  0  0
  6  5  1  0  0  0  0
  7  6  1  0  0  0  0
  8  7  1  0  0  0  0
  9 10  1  0  0  0  0
  9  8  1  0  0  0  0
 10 11  1  0  0  0  0
 11 12  1  0  0  0  0
 12 14  1  0  0  0  0
 14 13  1  0  0  0  0
 15 16  1  0  0  0  0
 16 17  1  0  0  0  0
 17 22  2  0  0  0  0
 17 18  1  0  0  0  0
 18 19  2  0  0  0  0
 19 20  1  0  0  0  0
 20 23  1  0  0  0  0
 21 20  2  0  0  0  0
 22 21  1  0  0  0  0
 23 24  1  0  0  0  0
 25 21  1  0  0  0  0
 26 25  1  0  0  0  0
M  END
>  <MODEL>
4

>  <REMARK>
 VINA RESULT:    -6.089      8.533     11.359
 INTER + INTRA:         -12.179
 INTER:                  -9.993
 INTRA:                  -2.186
 UNBOUND:                -1.106
  Name = CHEMBL2268808
  17 active torsions:
  status: ('A' for Active; 'I' for Inactive)
    1  A    between atoms: C_1  and  C_2
    2  A    between atoms: C_2  and  C_3
    3  A    between atoms: C_3  and  C_4
    4  A    between atoms: C_4  and  C_5
    5  A    between atoms: C_5  and  C_6
    6  A    between atoms: C_6  and  C_7
    7  A    between atoms: C_7  and  C_8
    8  A    between atoms: C_8  and  C_9
    9  A    between atoms: C_9  and  C_10
   10  A    between atoms: C_10  and  C_11
   11  A    between atoms: N_13  and  C_14
   12  A    between atoms: C_14  and  C_15
   13  A    between atoms: C_15  and  C_16
   14  A    between atoms: C_19  and  O_20
   15  A    between atoms: O_20  and  C_21
   16  A    between atoms: C_22  and  O_23
   17  A    between atoms: O_23  and  C_24
                            x       y       z     vdW  Elec       q    Type
                         _______ _______ _______ _____ _____    ______ ____

>  <TORSDO>
F 14

>  <SCORE>
-6.089

>  <RMSD_LB>
8.533

>  <RMSD_UB>
11.359

$$$$
CHEMBL2268808
 OpenBabel10172500133D

 26 26  0  0  0  0  0  0  0  0999 V2000
  145.2950  139.3370  150.0920 C   0  0  0  0  0  0  0  0  0  0  0  0
  144.2570  139.9820  150.0260 O   0  0  0  0  0  0  0  0  0  0  0  0
  145.4010  138.0420  149.6280 N   0  0  0  0  0  0  0  0  0  0  0  0
  146.2620  137.5650  149.6790 H   0  0  0  0  0  0  0  0  0  0  0  0
  146.5850  139.9010  150.6590 C   0  0  0  0  0  2  0  0  0  0  0  0
  146.3230  141.2680  151.2870 C   0  0  0  0  0  2  0  0  0  0  0  0
  147.5550  142.1680  151.2610 C   0  0  0  0  0  2  0  0  0  0  0  0
  148.4720  141.8390  152.4390 C   0  0  0  0  0  2  0  0  0  0  0  0
  147.6830  141.7490  153.7400 C   0  0  0  0  0  2  0  0  0  0  0  0
  148.0360  140.4740  154.5010 C   0  0  0  0  0  2  0  0  0  0  0  0
  148.7620  139.4860  153.5940 C   0  0  0  0  0  2  0  0  0  0  0  0
  148.2620  138.0640  153.8270 C   0  0  0  0  0  2  0  0  0  0  0  0
  145.9630  137.0600  153.8260 C   0  0  0  0  0  1  0  0  0  0  0  0
  146.8870  138.0660  154.4890 C   0  0  0  0  0  2  0  0  0  0  0  0
  144.2330  137.3860  149.0640 C   0  0  0  0  0  2  0  0  0  0  0  0
  143.6390  136.3290  149.9950 C   0  0  0  0  0  2  0  0  0  0  0  0
  142.4940  136.8610  150.8210 C   0  0  0  0  0  0  0  0  0  0  0  0
  142.7220  137.3760  152.0980 C   0  0  0  0  0  3  0  0  0  0  0  0
  141.6630  137.8800  152.8630 C   0  0  0  0  0  3  0  0  0  0  0  0
  140.3550  137.9020  152.3610 C   0  0  0  0  0  0  0  0  0  0  0  0
  140.1230  137.4260  151.0580 C   0  0  0  0  0  0  0  0  0  0  0  0
  141.1860  136.8780  150.3180 C   0  0  0  0  0  3  0  0  0  0  0  0
  139.2790  138.3420  153.0850 O   0  0  0  0  0  0  0  0  0  0  0  0
  139.5160  139.0500  154.2940 C   0  0  0  0  0  1  0  0  0  0  0  0
  138.9240  137.3950  150.3880 O   0  0  0  0  0  0  0  0  0  0  0  0
  138.9250  136.8120  149.0880 C   0  0  0  0  0  1  0  0  0  0  0  0
  1  5  1  0  0  0  0
  2  1  2  0  0  0  0
  3  4  1  0  0  0  0
  3  1  1  0  0  0  0
  5  6  1  0  0  0  0
  7  6  1  0  0  0  0
  7  8  1  0  0  0  0
  8  9  1  0  0  0  0
  9 10  1  0  0  0  0
 11 12  1  0  0  0  0
 11 10  1  0  0  0  0
 12 14  1  0  0  0  0
 13 14  1  0  0  0  0
 15  3  1  0  0  0  0
 15 16  1  0  0  0  0
 16 17  1  0  0  0  0
 17 18  1  0  0  0  0
 18 19  2  0  0  0  0
 20 19  1  0  0  0  0
 20 23  1  0  0  0  0
 21 20  2  0  0  0  0
 22 17  2  0  0  0  0
 22 21  1  0  0  0  0
 23 24  1  0  0  0  0
 25 21  1  0  0  0  0
 26 25  1  0  0  0  0
M  END
>  <MODEL>
5

>  <REMARK>
 VINA RESULT:    -5.919      1.623      2.114
 INTER + INTRA:         -11.870
 INTER:                  -9.931
 INTRA:                  -1.939
 UNBOUND:                -1.106
  Name = CHEMBL2268808
  17 active torsions:
  status: ('A' for Active; 'I' for Inactive)
    1  A    between atoms: C_1  and  C_2
    2  A    between atoms: C_2  and  C_3
    3  A    between atoms: C_3  and  C_4
    4  A    between atoms: C_4  and  C_5
    5  A    between atoms: C_5  and  C_6
    6  A    between atoms: C_6  and  C_7
    7  A    between atoms: C_7  and  C_8
    8  A    between atoms: C_8  and  C_9
    9  A    between atoms: C_9  and  C_10
   10  A    between atoms: C_10  and  C_11
   11  A    between atoms: N_13  and  C_14
   12  A    between atoms: C_14  and  C_15
   13  A    between atoms: C_15  and  C_16
   14  A    between atoms: C_19  and  O_20
   15  A    between atoms: O_20  and  C_21
   16  A    between atoms: C_22  and  O_23
   17  A    between atoms: O_23  and  C_24
                            x       y       z     vdW  Elec       q    Type
                         _______ _______ _______ _____ _____    ______ ____

>  <TORSDO>
F 14

>  <SCORE>
-5.919

>  <RMSD_LB>
1.623

>  <RMSD_UB>
2.114

$$$$
CHEMBL2268808
 OpenBabel10172500133D

 26 26  0  0  0  0  0  0  0  0999 V2000
  142.3990  138.5200  152.0830 C   0  0  0  0  0  0  0  0  0  0  0  0
  142.4430  137.3970  151.6010 O   0  0  0  0  0  0  0  0  0  0  0  0
  141.3160  138.9830  152.8020 N   0  0  0  0  0  0  0  0  0  0  0  0
  141.3300  139.8870  153.1940 H   0  0  0  0  0  0  0  0  0  0  0  0
  143.5410  139.5140  151.9730 C   0  0  0  0  0  2  0  0  0  0  0  0
  144.8180  138.7930  151.5480 C   0  0  0  0  0  2  0  0  0  0  0  0
  145.6390  138.3090  152.7390 C   0  0  0  0  0  2  0  0  0  0  0  0
  147.1210  138.6040  152.5120 C   0  0  0  0  0  2  0  0  0  0  0  0
  147.8150  138.9660  153.8200 C   0  0  0  0  0  2  0  0  0  0  0  0
  147.0690  140.0860  154.5390 C   0  0  0  0  0  2  0  0  0  0  0  0
  147.5820  141.4510  154.0910 C   0  0  0  0  0  2  0  0  0  0  0  0
  146.5010  142.2170  153.3340 C   0  0  0  0  0  2  0  0  0  0  0  0
  145.5450  142.6140  151.0490 C   0  0  0  0  0  1  0  0  0  0  0  0
  146.7870  142.2350  151.8360 C   0  0  0  0  0  2  0  0  0  0  0  0
  140.1550  138.1270  152.9770 C   0  0  0  0  0  2  0  0  0  0  0  0
  139.0310  138.8050  153.7610 C   0  0  0  0  0  2  0  0  0  0  0  0
  138.4080  137.8930  154.7880 C   0  0  0  0  0  0  0  0  0  0  0  0
  138.7930  137.9690  156.1280 C   0  0  0  0  0  3  0  0  0  0  0  0
  138.2110  137.1310  157.0860 C   0  0  0  0  0  3  0  0  0  0  0  0
  137.2120  136.2150  156.7330 C   0  0  0  0  0  0  0  0  0  0  0  0
  136.7860  136.1610  155.3930 C   0  0  0  0  0  0  0  0  0  0  0  0
  137.4120  136.9730  154.4310 C   0  0  0  0  0  3  0  0  0  0  0  0
  136.6420  135.3430  157.6220 O   0  0  0  0  0  0  0  0  0  0  0  0
  136.0930  135.8620  158.8270 C   0  0  0  0  0  1  0  0  0  0  0  0
  135.8060  135.3550  154.8660 O   0  0  0  0  0  0  0  0  0  0  0  0
  135.5450  135.4830  153.4710 C   0  0  0  0  0  1  0  0  0  0  0  0
  1  3  1  0  0  0  0
  2  1  2  0  0  0  0
  3 15  1  0  0  0  0
  3  4  1  0  0  0  0
  5  1  1  0  0  0  0
  6  5  1  0  0  0  0
  6  7  1  0  0  0  0
  8  7  1  0  0  0  0
  8  9  1  0  0  0  0
  9 10  1  0  0  0  0
 11 10  1  0  0  0  0
 12 11  1  0  0  0  0
 13 14  1  0  0  0  0
 14 12  1  0  0  0  0
 15 16  1  0  0  0  0
 16 17  1  0  0  0  0
 17 18  1  0  0  0  0
 18 19  2  0  0  0  0
 20 19  1  0  0  0  0
 20 23  1  0  0  0  0
 21 20  2  0  0  0  0
 22 17  2  0  0  0  0
 22 21  1  0  0  0  0
 23 24  1  0  0  0  0
 25 21  1  0  0  0  0
 26 25  1  0  0  0  0
M  END
>  <MODEL>
6

>  <REMARK>
 VINA RESULT:    -5.881      2.709      4.274
 INTER + INTRA:         -11.801
 INTER:                 -10.316
 INTRA:                  -1.485
 UNBOUND:                -1.106
  Name = CHEMBL2268808
  17 active torsions:
  status: ('A' for Active; 'I' for Inactive)
    1  A    between atoms: C_1  and  C_2
    2  A    between atoms: C_2  and  C_3
    3  A    between atoms: C_3  and  C_4
    4  A    between atoms: C_4  and  C_5
    5  A    between atoms: C_5  and  C_6
    6  A    between atoms: C_6  and  C_7
    7  A    between atoms: C_7  and  C_8
    8  A    between atoms: C_8  and  C_9
    9  A    between atoms: C_9  and  C_10
   10  A    between atoms: C_10  and  C_11
   11  A    between atoms: N_13  and  C_14
   12  A    between atoms: C_14  and  C_15
   13  A    between atoms: C_15  and  C_16
   14  A    between atoms: C_19  and  O_20
   15  A    between atoms: O_20  and  C_21
   16  A    between atoms: C_22  and  O_23
   17  A    between atoms: O_23  and  C_24
                            x       y       z     vdW  Elec       q    Type
                         _______ _______ _______ _____ _____    ______ ____

>  <TORSDO>
F 14

>  <SCORE>
-5.881

>  <RMSD_LB>
2.709

>  <RMSD_UB>
4.274

$$$$
CHEMBL2268808
 OpenBabel10172500133D

 26 26  0  0  0  0  0  0  0  0999 V2000
  144.6620  139.5720  154.2410 C   0  0  0  0  0  0  0  0  0  0  0  0
  144.9820  139.0540  155.3020 O   0  0  0  0  0  0  0  0  0  0  0  0
  143.3470  139.7560  153.8660 N   0  0  0  0  0  0  0  0  0  0  0  0
  143.1320  140.1980  153.0120 H   0  0  0  0  0  0  0  0  0  0  0  0
  145.6740  140.0980  153.2380 C   0  0  0  0  0  2  0  0  0  0  0  0
  146.1910  138.9520  152.3730 C   0  0  0  0  0  2  0  0  0  0  0  0
  145.8580  139.1400  150.8960 C   0  0  0  0  0  2  0  0  0  0  0  0
  146.8980  140.0400  150.2310 C   0  0  0  0  0  2  0  0  0  0  0  0
  146.2490  141.2860  149.6410 C   0  0  0  0  0  2  0  0  0  0  0  0
  146.9760  142.5470  150.1000 C   0  0  0  0  0  2  0  0  0  0  0  0
  147.5920  142.3430  151.4810 C   0  0  0  0  0  2  0  0  0  0  0  0
  149.1150  142.3420  151.4020 C   0  0  0  0  0  2  0  0  0  0  0  0
  148.8460  141.6920  153.8100 C   0  0  0  0  0  1  0  0  0  0  0  0
  149.7380  142.3840  152.7950 C   0  0  0  0  0  2  0  0  0  0  0  0
  142.2830  139.2920  154.7390 C   0  0  0  0  0  2  0  0  0  0  0  0
  141.8260  137.8700  154.4130 C   0  0  0  0  0  2  0  0  0  0  0  0
  140.9900  137.8010  153.1590 C   0  0  0  0  0  0  0  0  0  0  0  0
  139.6360  138.1410  153.1920 C   0  0  0  0  0  3  0  0  0  0  0  0
  138.8590  138.0890  152.0290 C   0  0  0  0  0  3  0  0  0  0  0  0
  139.4220  137.7190  150.8000 C   0  0  0  0  0  0  0  0  0  0  0  0
  140.7950  137.4180  150.7490 C   0  0  0  0  0  0  0  0  0  0  0  0
  141.5540  137.4270  151.9320 C   0  0  0  0  0  3  0  0  0  0  0  0
  138.6970  137.6090  149.6430 O   0  0  0  0  0  0  0  0  0  0  0  0
  138.4370  138.7860  148.8900 C   0  0  0  0  0  1  0  0  0  0  0  0
  141.5260  137.0660  149.6390 O   0  0  0  0  0  0  0  0  0  0  0  0
  142.2200  138.1120  148.9650 C   0  0  0  0  0  1  0  0  0  0  0  0
  1  2  2  0  0  0  0
  3  1  1  0  0  0  0
  3 15  1  0  0  0  0
  4  3  1  0  0  0  0
  5  1  1  0  0  0  0
  6  5  1  0  0  0  0
  7  6  1  0  0  0  0
  8  7  1  0  0  0  0
  9 10  1  0  0  0  0
  9  8  1  0  0  0  0
 10 11  1  0  0  0  0
 12 11  1  0  0  0  0
 12 14  1  0  0  0  0
 14 13  1  0  0  0  0
 16 15  1  0  0  0  0
 17 18  1  0  0  0  0
 17 16  1  0  0  0  0
 19 18  2  0  0  0  0
 20 19  1  0  0  0  0
 21 20  2  0  0  0  0
 21 22  1  0  0  0  0
 22 17  2  0  0  0  0
 23 20  1  0  0  0  0
 24 23  1  0  0  0  0
 25 21  1  0  0  0  0
 26 25  1  0  0  0  0
M  END
>  <MODEL>
7

>  <REMARK>
 VINA RESULT:    -5.831      2.253      4.492
 INTER + INTRA:         -11.709
 INTER:                 -10.339
 INTRA:                  -1.370
 UNBOUND:                -1.106
  Name = CHEMBL2268808
  17 active torsions:
  status: ('A' for Active; 'I' for Inactive)
    1  A    between atoms: C_1  and  C_2
    2  A    between atoms: C_2  and  C_3
    3  A    between atoms: C_3  and  C_4
    4  A    between atoms: C_4  and  C_5
    5  A    between atoms: C_5  and  C_6
    6  A    between atoms: C_6  and  C_7
    7  A    between atoms: C_7  and  C_8
    8  A    between atoms: C_8  and  C_9
    9  A    between atoms: C_9  and  C_10
   10  A    between atoms: C_10  and  C_11
   11  A    between atoms: N_13  and  C_14
   12  A    between atoms: C_14  and  C_15
   13  A    between atoms: C_15  and  C_16
   14  A    between atoms: C_19  and  O_20
   15  A    between atoms: O_20  and  C_21
   16  A    between atoms: C_22  and  O_23
   17  A    between atoms: O_23  and  C_24
                            x       y       z     vdW  Elec       q    Type
                         _______ _______ _______ _____ _____    ______ ____

>  <TORSDO>
F 14

>  <SCORE>
-5.831

>  <RMSD_LB>
2.253

>  <RMSD_UB>
4.492

$$$$
CHEMBL2268808
 OpenBabel10172500133D

 26 26  0  0  0  0  0  0  0  0999 V2000
  145.1440  138.9230  149.9980 C   0  0  0  0  0  0  0  0  0  0  0  0
  144.1670  139.6410  149.8300 O   0  0  0  0  0  0  0  0  0  0  0  0
  145.2730  137.6850  149.4020 N   0  0  0  0  0  0  0  0  0  0  0  0
  146.0860  137.1490  149.5450 H   0  0  0  0  0  0  0  0  0  0  0  0
  146.3320  139.3300  150.8500 C   0  0  0  0  0  2  0  0  0  0  0  0
  146.2000  140.7930  151.2640 C   0  0  0  0  0  2  0  0  0  0  0  0
  147.4420  141.6110  150.9240 C   0  0  0  0  0  2  0  0  0  0  0  0
  148.4360  141.5650  152.0830 C   0  0  0  0  0  2  0  0  0  0  0  0
  147.7410  141.8270  153.4130 C   0  0  0  0  0  2  0  0  0  0  0  0
  148.0920  140.7470  154.4330 C   0  0  0  0  0  2  0  0  0  0  0  0
  148.6900  139.5260  153.7410 C   0  0  0  0  0  2  0  0  0  0  0  0
  148.1860  138.2360  154.3790 C   0  0  0  0  0  2  0  0  0  0  0  0
  146.0910  136.9170  153.9740 C   0  0  0  0  0  1  0  0  0  0  0  0
  146.6640  138.2300  154.4770 C   0  0  0  0  0  2  0  0  0  0  0  0
  144.2000  137.1800  148.5630 C   0  0  0  0  0  2  0  0  0  0  0  0
  143.4230  136.0380  149.2170 C   0  0  0  0  0  2  0  0  0  0  0  0
  142.1470  136.5040  149.8730 C   0  0  0  0  0  0  0  0  0  0  0  0
  140.9250  136.3780  149.2110 C   0  0  0  0  0  3  0  0  0  0  0  0
  139.7370  136.8000  149.8190 C   0  0  0  0  0  3  0  0  0  0  0  0
  139.7390  137.3360  151.1140 C   0  0  0  0  0  0  0  0  0  0  0  0
  140.9600  137.4260  151.8070 C   0  0  0  0  0  0  0  0  0  0  0  0
  142.1520  137.0440  151.1670 C   0  0  0  0  0  3  0  0  0  0  0  0
  138.6120  137.8040  151.7370 O   0  0  0  0  0  0  0  0  0  0  0  0
  137.3890  137.1080  151.5420 C   0  0  0  0  0  1  0  0  0  0  0  0
  141.1570  137.8920  153.0840 O   0  0  0  0  0  0  0  0  0  0  0  0
  142.4960  137.8970  153.5710 C   0  0  0  0  0  1  0  0  0  0  0  0
  1  5  1  0  0  0  0
  2  1  2  0  0  0  0
  3  4  1  0  0  0  0
  3  1  1  0  0  0  0
  5  6  1  0  0  0  0
  7  6  1  0  0  0  0
  7  8  1  0  0  0  0
  8  9  1  0  0  0  0
  9 10  1  0  0  0  0
 11 12  1  0  0  0  0
 11 10  1  0  0  0  0
 12 14  1  0  0  0  0
 13 14  1  0  0  0  0
 15 16  1  0  0  0  0
 15  3  1  0  0  0  0
 16 17  1  0  0  0  0
 17 22  1  0  0  0  0
 18 19  1  0  0  0  0
 18 17  2  0  0  0  0
 19 20  2  0  0  0  0
 20 23  1  0  0  0  0
 20 21  1  0  0  0  0
 21 25  1  0  0  0  0
 22 21  2  0  0  0  0
 24 23  1  0  0  0  0
 25 26  1  0  0  0  0
M  END
>  <MODEL>
8

>  <REMARK>
 VINA RESULT:    -5.738      1.610      2.747
 INTER + INTRA:         -11.540
 INTER:                  -9.689
 INTRA:                  -1.851
 UNBOUND:                -1.106
  Name = CHEMBL2268808
  17 active torsions:
  status: ('A' for Active; 'I' for Inactive)
    1  A    between atoms: C_1  and  C_2
    2  A    between atoms: C_2  and  C_3
    3  A    between atoms: C_3  and  C_4
    4  A    between atoms: C_4  and  C_5
    5  A    between atoms: C_5  and  C_6
    6  A    between atoms: C_6  and  C_7
    7  A    between atoms: C_7  and  C_8
    8  A    between atoms: C_8  and  C_9
    9  A    between atoms: C_9  and  C_10
   10  A    between atoms: C_10  and  C_11
   11  A    between atoms: N_13  and  C_14
   12  A    between atoms: C_14  and  C_15
   13  A    between atoms: C_15  and  C_16
   14  A    between atoms: C_19  and  O_20
   15  A    between atoms: O_20  and  C_21
   16  A    between atoms: C_22  and  O_23
   17  A    between atoms: O_23  and  C_24
                            x       y       z     vdW  Elec       q    Type
                         _______ _______ _______ _____ _____    ______ ____

>  <TORSDO>
F 14

>  <SCORE>
-5.738

>  <RMSD_LB>
1.610

>  <RMSD_UB>
2.747

$$$$
CHEMBL2268808
 OpenBabel10172500133D

 26 26  0  0  0  0  0  0  0  0999 V2000
  142.6230  139.4480  151.5640 C   0  0  0  0  0  0  0  0  0  0  0  0
  141.8860  139.8690  150.6840 O   0  0  0  0  0  0  0  0  0  0  0  0
  142.1600  138.7280  152.6460 N   0  0  0  0  0  0  0  0  0  0  0  0
  142.7910  138.3860  153.3220 H   0  0  0  0  0  0  0  0  0  0  0  0
  144.1290  139.6410  151.5450 C   0  0  0  0  0  2  0  0  0  0  0  0
  144.4920  140.8110  150.6360 C   0  0  0  0  0  2  0  0  0  0  0  0
  145.2290  141.9220  151.3770 C   0  0  0  0  0  2  0  0  0  0  0  0
  146.6130  142.1350  150.7670 C   0  0  0  0  0  2  0  0  0  0  0  0
  147.6810  142.2390  151.8490 C   0  0  0  0  0  2  0  0  0  0  0  0
  148.4660  140.9360  151.9650 C   0  0  0  0  0  2  0  0  0  0  0  0
  147.8370  140.0170  153.0070 C   0  0  0  0  0  2  0  0  0  0  0  0
  148.4410  138.6180  152.9360 C   0  0  0  0  0  2  0  0  0  0  0  0
  146.9270  136.9390  151.8490 C   0  0  0  0  0  1  0  0  0  0  0  0
  147.3780  137.5480  153.1650 C   0  0  0  0  0  2  0  0  0  0  0  0
  140.7350  138.4780  152.7820 C   0  0  0  0  0  2  0  0  0  0  0  0
  140.1490  139.0690  154.0630 C   0  0  0  0  0  2  0  0  0  0  0  0
  139.2070  138.1210  154.7620 C   0  0  0  0  0  0  0  0  0  0  0  0
  139.5250  137.6080  156.0210 C   0  0  0  0  0  3  0  0  0  0  0  0
  138.6490  136.7350  156.6780 C   0  0  0  0  0  3  0  0  0  0  0  0
  137.4240  136.3730  156.1040 C   0  0  0  0  0  0  0  0  0  0  0  0
  137.0750  136.9190  154.8550 C   0  0  0  0  0  0  0  0  0  0  0  0
  137.9830  137.7560  154.1830 C   0  0  0  0  0  3  0  0  0  0  0  0
  136.5530  135.4890  156.6830 O   0  0  0  0  0  0  0  0  0  0  0  0
  136.0500  135.7820  157.9800 C   0  0  0  0  0  1  0  0  0  0  0  0
  135.9130  136.7080  154.1520 O   0  0  0  0  0  0  0  0  0  0  0  0
  135.9960  135.8700  153.0030 C   0  0  0  0  0  1  0  0  0  0  0  0
  1  3  1  0  0  0  0
  2  1  2  0  0  0  0
  3 15  1  0  0  0  0
  3  4  1  0  0  0  0
  5  1  1  0  0  0  0
  6  7  1  0  0  0  0
  6  5  1  0  0  0  0
  8  7  1  0  0  0  0
  8  9  1  0  0  0  0
  9 10  1  0  0  0  0
 10 11  1  0  0  0  0
 12 11  1  0  0  0  0
 12 14  1  0  0  0  0
 13 14  1  0  0  0  0
 15 16  1  0  0  0  0
 16 17  1  0  0  0  0
 17 18  1  0  0  0  0
 18 19  2  0  0  0  0
 20 19  1  0  0  0  0
 20 23  1  0  0  0  0
 21 20  2  0  0  0  0
 22 17  2  0  0  0  0
 22 21  1  0  0  0  0
 23 24  1  0  0  0  0
 25 21  1  0  0  0  0
 26 25  1  0  0  0  0
M  END
>  <MODEL>
9

>  <REMARK>
 VINA RESULT:    -5.693      2.364      3.435
 INTER + INTRA:         -11.459
 INTER:                 -10.353
 INTRA:                  -1.106
 UNBOUND:                -1.106
  Name = CHEMBL2268808
  17 active torsions:
  status: ('A' for Active; 'I' for Inactive)
    1  A    between atoms: C_1  and  C_2
    2  A    between atoms: C_2  and  C_3
    3  A    between atoms: C_3  and  C_4
    4  A    between atoms: C_4  and  C_5
    5  A    between atoms: C_5  and  C_6
    6  A    between atoms: C_6  and  C_7
    7  A    between atoms: C_7  and  C_8
    8  A    between atoms: C_8  and  C_9
    9  A    between atoms: C_9  and  C_10
   10  A    between atoms: C_10  and  C_11
   11  A    between atoms: N_13  and  C_14
   12  A    between atoms: C_14  and  C_15
   13  A    between atoms: C_15  and  C_16
   14  A    between atoms: C_19  and  O_20
   15  A    between atoms: O_20  and  C_21
   16  A    between atoms: C_22  and  O_23
   17  A    between atoms: O_23  and  C_24
                            x       y       z     vdW  Elec       q    Type
                         _______ _______ _______ _____ _____    ______ ____

>  <TORSDO>
F 14

>  <SCORE>
-5.693

>  <RMSD_LB>
2.364

>  <RMSD_UB>
3.435

$$$$
