CHEMBL3220063
 OpenBabel10172500423D

 24 25  0  0  0  0  0  0  0  0999 V2000
  133.0910  134.6320  152.1140 N   0  0  0  0  0  0  0  0  0  0  0  0
  134.1070  135.4390  152.5540 C   0  0  0  0  0  0  0  0  0  0  0  0
  134.5460  136.3930  151.9290 O   0  0  0  0  0  0  0  0  0  0  0  0
  134.5680  135.0430  153.7840 N   0  0  0  0  0  0  0  0  0  0  0  0
  132.8390  133.8330  152.6310 H   0  0  0  0  0  0  0  0  0  0  0  0
  134.1160  134.3140  154.2650 H   0  0  0  0  0  0  0  0  0  0  0  0
  132.3830  134.9500  150.8890 C   0  0  0  0  0  2  0  0  0  0  0  0
  133.7520  134.3500  147.3610 C   0  0  0  0  0  0  0  0  0  0  0  0
  133.1170  134.9550  148.4540 C   0  0  0  0  0  3  0  0  0  0  0  0
  133.0180  134.2880  149.6900 C   0  0  0  0  0  0  0  0  0  0  0  0
  133.5710  133.0040  149.8160 C   0  0  0  0  0  3  0  0  0  0  0  0
  134.2000  132.3910  148.7340 C   0  0  0  0  0  3  0  0  0  0  0  0
  134.2870  133.0640  147.5170 C   0  0  0  0  0  0  0  0  0  0  0  0
  134.2490  136.2940  146.0620 C   0  0  0  0  0  1  0  0  0  0  0  0
  133.9100  134.9170  146.1240 O   0  0  0  0  0  0  0  0  0  0  0  0
  134.9090  132.4640  146.4540 O   0  0  0  0  0  0  0  0  0  0  0  0
  134.4080  131.9750  145.8310 H   0  0  0  0  0  0  0  0  0  0  0  0
  135.7200  135.6930  154.3750 C   0  0  0  0  0  2  0  0  0  0  0  0
  135.7390  135.5460  155.8760 C   0  0  0  0  0  0  0  0  0  0  0  0
  134.6890  134.9130  156.5580 C   0  0  0  0  0  3  0  0  0  0  0  0
  134.7560  134.7200  157.9410 C   0  0  0  0  0  3  0  0  0  0  0  0
  135.8700  135.1560  158.6570 C   0  0  0  0  0  3  0  0  0  0  0  0
  136.9150  135.7920  157.9930 C   0  0  0  0  0  3  0  0  0  0  0  0
  136.8510  135.9850  156.6120 C   0  0  0  0  0  3  0  0  0  0  0  0
  1  2  1  0  0  0  0
  1  5  1  0  0  0  0
  2  4  1  0  0  0  0
  3  2  2  0  0  0  0
  4  6  1  0  0  0  0
  4 18  1  0  0  0  0
  7  1  1  0  0  0  0
  8 13  2  0  0  0  0
  8  9  1  0  0  0  0
  9 10  2  0  0  0  0
 10 11  1  0  0  0  0
 10  7  1  0  0  0  0
 12 11  2  0  0  0  0
 13 12  1  0  0  0  0
 14 15  1  0  0  0  0
 15  8  1  0  0  0  0
 16 13  1  0  0  0  0
 17 16  1  0  0  0  0
 18 19  1  0  0  0  0
 19 20  2  0  0  0  0
 19 24  1  0  0  0  0
 20 21  1  0  0  0  0
 21 22  2  0  0  0  0
 23 22  1  0  0  0  0
 24 23  2  0  0  0  0
M  END
>  <MODEL>
1

>  <REMARK>
 VINA RESULT:    -7.129      0.000      0.000
 INTER + INTRA:          -9.999
 INTER:                  -9.559
 INTRA:                  -0.440
 UNBOUND:                -0.577
  Name = CHEMBL3220063
  7 active torsions:
  status: ('A' for Active; 'I' for Inactive)
    1  A    between atoms: C_1  and  O_2
    2  A    between atoms: O_2  and  C_3
    3  A    between atoms: C_5  and  C_6
    4  A    between atoms: C_6  and  N_7
    5  A    between atoms: N_10  and  C_11
    6  A    between atoms: C_11  and  C_12
    7  A    between atoms: C_20  and  O_21
                            x       y       z     vdW  Elec       q    Type
                         _______ _______ _______ _____ _____    ______ ____

>  <TORSDO>
F 6

>  <SCORE>
-7.129

>  <RMSD_LB>
0.000

>  <RMSD_UB>
0.000

$$$$
CHEMBL3220063
 OpenBabel10172500423D

 24 25  0  0  0  0  0  0  0  0999 V2000
  133.8800  135.6030  151.9500 N   0  0  0  0  0  0  0  0  0  0  0  0
  134.2140  135.2510  153.2320 C   0  0  0  0  0  0  0  0  0  0  0  0
  133.5650  134.4790  153.9230 O   0  0  0  0  0  0  0  0  0  0  0  0
  135.3650  135.8740  153.6420 N   0  0  0  0  0  0  0  0  0  0  0  0
  134.4020  136.2920  151.4790 H   0  0  0  0  0  0  0  0  0  0  0  0
  135.8790  136.4220  153.0060 H   0  0  0  0  0  0  0  0  0  0  0  0
  132.7600  134.9650  151.2850 C   0  0  0  0  0  2  0  0  0  0  0  0
  133.6010  134.7180  147.5560 C   0  0  0  0  0  0  0  0  0  0  0  0
  133.1880  135.2300  148.7930 C   0  0  0  0  0  3  0  0  0  0  0  0
  133.1530  134.4110  149.9380 C   0  0  0  0  0  0  0  0  0  0  0  0
  133.5460  133.0690  149.8250 C   0  0  0  0  0  3  0  0  0  0  0  0
  133.9540  132.5470  148.5980 C   0  0  0  0  0  3  0  0  0  0  0  0
  133.9790  133.3700  147.4740 C   0  0  0  0  0  0  0  0  0  0  0  0
  133.7550  136.8460  146.4800 C   0  0  0  0  0  1  0  0  0  0  0  0
  133.6800  135.4310  146.3890 O   0  0  0  0  0  0  0  0  0  0  0  0
  134.3840  132.8600  146.2690 O   0  0  0  0  0  0  0  0  0  0  0  0
  134.8240  132.0340  146.2330 H   0  0  0  0  0  0  0  0  0  0  0  0
  135.8280  135.7270  155.0070 C   0  0  0  0  0  2  0  0  0  0  0  0
  137.1410  136.4330  155.2340 C   0  0  0  0  0  0  0  0  0  0  0  0
  137.6580  137.3310  154.2870 C   0  0  0  0  0  3  0  0  0  0  0  0
  138.8390  138.0320  154.5450 C   0  0  0  0  0  3  0  0  0  0  0  0
  139.5160  137.8460  155.7490 C   0  0  0  0  0  3  0  0  0  0  0  0
  139.0180  136.9530  156.6940 C   0  0  0  0  0  3  0  0  0  0  0  0
  137.8380  136.2520  156.4390 C   0  0  0  0  0  3  0  0  0  0  0  0
  1  2  1  0  0  0  0
  2  4  1  0  0  0  0
  2  3  2  0  0  0  0
  4 18  1  0  0  0  0
  5  1  1  0  0  0  0
  6  4  1  0  0  0  0
  7  1  1  0  0  0  0
  8  9  1  0  0  0  0
  9 10  2  0  0  0  0
 10  7  1  0  0  0  0
 11 10  1  0  0  0  0
 12 11  2  0  0  0  0
 13  8  2  0  0  0  0
 13 12  1  0  0  0  0
 15 14  1  0  0  0  0
 15  8  1  0  0  0  0
 16 13  1  0  0  0  0
 17 16  1  0  0  0  0
 18 19  1  0  0  0  0
 19 24  1  0  0  0  0
 20 21  1  0  0  0  0
 20 19  2  0  0  0  0
 21 22  2  0  0  0  0
 22 23  1  0  0  0  0
 24 23  2  0  0  0  0
M  END
>  <MODEL>
2

>  <REMARK>
 VINA RESULT:    -6.911      1.606      2.338
 INTER + INTRA:          -9.710
 INTER:                  -9.323
 INTRA:                  -0.387
 UNBOUND:                -0.577
  Name = CHEMBL3220063
  7 active torsions:
  status: ('A' for Active; 'I' for Inactive)
    1  A    between atoms: C_1  and  O_2
    2  A    between atoms: O_2  and  C_3
    3  A    between atoms: C_5  and  C_6
    4  A    between atoms: C_6  and  N_7
    5  A    between atoms: N_10  and  C_11
    6  A    between atoms: C_11  and  C_12
    7  A    between atoms: C_20  and  O_21
                            x       y       z     vdW  Elec       q    Type
                         _______ _______ _______ _____ _____    ______ ____

>  <TORSDO>
F 6

>  <SCORE>
-6.911

>  <RMSD_LB>
1.606

>  <RMSD_UB>
2.338

$$$$
CHEMBL3220063
 OpenBabel10172500423D

 24 25  0  0  0  0  0  0  0  0999 V2000
  135.7980  136.0460  153.9980 N   0  0  0  0  0  0  0  0  0  0  0  0
  134.5510  135.5640  153.6980 C   0  0  0  0  0  0  0  0  0  0  0  0
  133.6770  135.3560  154.5270 O   0  0  0  0  0  0  0  0  0  0  0  0
  134.4060  135.3440  152.3520 N   0  0  0  0  0  0  0  0  0  0  0  0
  136.4810  136.1150  153.2930 H   0  0  0  0  0  0  0  0  0  0  0  0
  135.1240  135.6080  151.7320 H   0  0  0  0  0  0  0  0  0  0  0  0
  136.1160  136.4560  155.3530 C   0  0  0  0  0  2  0  0  0  0  0  0
  139.4070  138.2300  154.5180 C   0  0  0  0  0  0  0  0  0  0  0  0
  138.1190  137.6950  154.3920 C   0  0  0  0  0  3  0  0  0  0  0  0
  137.5230  136.9910  155.4570 C   0  0  0  0  0  0  0  0  0  0  0  0
  138.2390  136.8380  156.6540 C   0  0  0  0  0  3  0  0  0  0  0  0
  139.5240  137.3620  156.7880 C   0  0  0  0  0  3  0  0  0  0  0  0
  140.1000  138.0520  155.7240 C   0  0  0  0  0  0  0  0  0  0  0  0
  139.4880  138.9940  152.2550 C   0  0  0  0  0  1  0  0  0  0  0  0
  140.0690  138.9360  153.5480 O   0  0  0  0  0  0  0  0  0  0  0  0
  141.3600  138.5710  155.8550 O   0  0  0  0  0  0  0  0  0  0  0  0
  141.9900  138.4530  155.1720 H   0  0  0  0  0  0  0  0  0  0  0  0
  133.2010  134.7250  151.8380 C   0  0  0  0  0  2  0  0  0  0  0  0
  133.3880  134.2090  150.4340 C   0  0  0  0  0  0  0  0  0  0  0  0
  134.0120  132.9760  150.1900 C   0  0  0  0  0  3  0  0  0  0  0  0
  134.1120  132.4770  148.8880 C   0  0  0  0  0  3  0  0  0  0  0  0
  133.5930  133.2030  147.8170 C   0  0  0  0  0  3  0  0  0  0  0  0
  132.9780  134.4310  148.0450 C   0  0  0  0  0  3  0  0  0  0  0  0
  132.8760  134.9300  149.3440 C   0  0  0  0  0  3  0  0  0  0  0  0
  1  7  1  0  0  0  0
  2  1  1  0  0  0  0
  2  3  2  0  0  0  0
  4  2  1  0  0  0  0
  5  1  1  0  0  0  0
  6  4  1  0  0  0  0
  7 10  1  0  0  0  0
  8 13  1  0  0  0  0
  9  8  2  0  0  0  0
  9 10  1  0  0  0  0
 10 11  2  0  0  0  0
 11 12  1  0  0  0  0
 13 16  1  0  0  0  0
 13 12  2  0  0  0  0
 14 15  1  0  0  0  0
 15  8  1  0  0  0  0
 17 16  1  0  0  0  0
 18  4  1  0  0  0  0
 19 18  1  0  0  0  0
 20 19  1  0  0  0  0
 21 20  2  0  0  0  0
 22 23  2  0  0  0  0
 22 21  1  0  0  0  0
 23 24  1  0  0  0  0
 24 19  2  0  0  0  0
M  END
>  <MODEL>
3

>  <REMARK>
 VINA RESULT:    -6.822      3.192      8.339
 INTER + INTRA:          -9.593
 INTER:                  -9.246
 INTRA:                  -0.347
 UNBOUND:                -0.577
  Name = CHEMBL3220063
  7 active torsions:
  status: ('A' for Active; 'I' for Inactive)
    1  A    between atoms: C_1  and  O_2
    2  A    between atoms: O_2  and  C_3
    3  A    between atoms: C_5  and  C_6
    4  A    between atoms: C_6  and  N_7
    5  A    between atoms: N_10  and  C_11
    6  A    between atoms: C_11  and  C_12
    7  A    between atoms: C_20  and  O_21
                            x       y       z     vdW  Elec       q    Type
                         _______ _______ _______ _____ _____    ______ ____

>  <TORSDO>
F 6

>  <SCORE>
-6.822

>  <RMSD_LB>
3.192

>  <RMSD_UB>
8.339

$$$$
CHEMBL3220063
 OpenBabel10172500423D

 24 25  0  0  0  0  0  0  0  0999 V2000
  146.8390  139.7740  147.4650 N   0  0  0  0  0  0  0  0  0  0  0  0
  146.3260  139.9250  148.7260 C   0  0  0  0  0  0  0  0  0  0  0  0
  146.0320  138.9960  149.4640 O   0  0  0  0  0  0  0  0  0  0  0  0
  146.1850  141.2490  149.0580 N   0  0  0  0  0  0  0  0  0  0  0  0
  146.9790  140.5640  146.8940 H   0  0  0  0  0  0  0  0  0  0  0  0
  146.5160  141.9450  148.4460 H   0  0  0  0  0  0  0  0  0  0  0  0
  147.1770  138.4550  146.9650 C   0  0  0  0  0  2  0  0  0  0  0  0
  150.6940  137.4870  145.7970 C   0  0  0  0  0  0  0  0  0  0  0  0
  149.4930  137.5070  146.5190 C   0  0  0  0  0  3  0  0  0  0  0  0
  148.4940  138.4570  146.2300 C   0  0  0  0  0  0  0  0  0  0  0  0
  148.7160  139.3840  145.2010 C   0  0  0  0  0  3  0  0  0  0  0  0
  149.9090  139.3760  144.4790 C   0  0  0  0  0  3  0  0  0  0  0  0
  150.8880  138.4320  144.7800 C   0  0  0  0  0  0  0  0  0  0  0  0
  151.4400  135.4060  146.7040 C   0  0  0  0  0  1  0  0  0  0  0  0
  151.7210  136.6010  145.9920 O   0  0  0  0  0  0  0  0  0  0  0  0
  152.0590  138.4200  144.0690 O   0  0  0  0  0  0  0  0  0  0  0  0
  152.5700  139.2020  143.9920 H   0  0  0  0  0  0  0  0  0  0  0  0
  145.5510  141.6250  150.3050 C   0  0  0  0  0  2  0  0  0  0  0  0
  146.5550  141.7980  151.4160 C   0  0  0  0  0  0  0  0  0  0  0  0
  146.1520  141.8370  152.7600 C   0  0  0  0  0  3  0  0  0  0  0  0
  147.1000  141.9240  153.7830 C   0  0  0  0  0  3  0  0  0  0  0  0
  148.4590  141.9730  153.4770 C   0  0  0  0  0  3  0  0  0  0  0  0
  148.8720  141.9410  152.1480 C   0  0  0  0  0  3  0  0  0  0  0  0
  147.9260  141.8540  151.1250 C   0  0  0  0  0  3  0  0  0  0  0  0
  1  2  1  0  0  0  0
  2  4  1  0  0  0  0
  2  3  2  0  0  0  0
  4 18  1  0  0  0  0
  5  1  1  0  0  0  0
  6  4  1  0  0  0  0
  7  1  1  0  0  0  0
  8 15  1  0  0  0  0
  8  9  1  0  0  0  0
 10  9  2  0  0  0  0
 10  7  1  0  0  0  0
 11 10  1  0  0  0  0
 12 13  1  0  0  0  0
 12 11  2  0  0  0  0
 13  8  2  0  0  0  0
 15 14  1  0  0  0  0
 16 13  1  0  0  0  0
 17 16  1  0  0  0  0
 18 19  1  0  0  0  0
 19 20  1  0  0  0  0
 20 21  2  0  0  0  0
 22 21  1  0  0  0  0
 23 22  2  0  0  0  0
 24 19  2  0  0  0  0
 24 23  1  0  0  0  0
M  END
>  <MODEL>
4

>  <REMARK>
 VINA RESULT:    -6.794     14.553     15.580
 INTER + INTRA:          -9.556
 INTER:                  -9.189
 INTRA:                  -0.366
 UNBOUND:                -0.577
  Name = CHEMBL3220063
  7 active torsions:
  status: ('A' for Active; 'I' for Inactive)
    1  A    between atoms: C_1  and  O_2
    2  A    between atoms: O_2  and  C_3
    3  A    between atoms: C_5  and  C_6
    4  A    between atoms: C_6  and  N_7
    5  A    between atoms: N_10  and  C_11
    6  A    between atoms: C_11  and  C_12
    7  A    between atoms: C_20  and  O_21
                            x       y       z     vdW  Elec       q    Type
                         _______ _______ _______ _____ _____    ______ ____

>  <TORSDO>
F 6

>  <SCORE>
-6.794

>  <RMSD_LB>
14.553

>  <RMSD_UB>
15.580

$$$$
CHEMBL3220063
 OpenBabel10172500423D

 24 25  0  0  0  0  0  0  0  0999 V2000
  143.2220  137.8660  154.2810 N   0  0  0  0  0  0  0  0  0  0  0  0
  141.9180  137.9780  153.8740 C   0  0  0  0  0  0  0  0  0  0  0  0
  141.4930  137.5610  152.8070 O   0  0  0  0  0  0  0  0  0  0  0  0
  141.1510  138.6170  154.8150 N   0  0  0  0  0  0  0  0  0  0  0  0
  143.5140  138.2950  155.1170 H   0  0  0  0  0  0  0  0  0  0  0  0
  141.5410  138.8560  155.6860 H   0  0  0  0  0  0  0  0  0  0  0  0
  144.1750  137.1190  153.4830 C   0  0  0  0  0  2  0  0  0  0  0  0
  147.0420  139.6350  153.1380 C   0  0  0  0  0  0  0  0  0  0  0  0
  145.7730  139.0490  153.0500 C   0  0  0  0  0  3  0  0  0  0  0  0
  145.5480  137.7420  153.5250 C   0  0  0  0  0  0  0  0  0  0  0  0
  146.6170  137.0340  154.0960 C   0  0  0  0  0  3  0  0  0  0  0  0
  147.8840  137.6060  154.1840 C   0  0  0  0  0  3  0  0  0  0  0  0
  148.0910  138.8980  153.7070 C   0  0  0  0  0  0  0  0  0  0  0  0
  146.7740  141.9960  153.3990 C   0  0  0  0  0  1  0  0  0  0  0  0
  147.3610  140.8990  152.7160 O   0  0  0  0  0  0  0  0  0  0  0  0
  149.3350  139.4640  153.7970 O   0  0  0  0  0  0  0  0  0  0  0  0
  150.0590  138.9580  154.1080 H   0  0  0  0  0  0  0  0  0  0  0  0
  139.7670  138.9390  154.5310 C   0  0  0  0  0  2  0  0  0  0  0  0
  138.8300  137.8530  154.9940 C   0  0  0  0  0  0  0  0  0  0  0  0
  138.9680  137.2640  156.2610 C   0  0  0  0  0  3  0  0  0  0  0  0
  138.0470  136.3110  156.7040 C   0  0  0  0  0  3  0  0  0  0  0  0
  136.9800  135.9350  155.8890 C   0  0  0  0  0  3  0  0  0  0  0  0
  136.8350  136.5070  154.6280 C   0  0  0  0  0  3  0  0  0  0  0  0
  137.7530  137.4600  154.1840 C   0  0  0  0  0  3  0  0  0  0  0  0
  1  5  1  0  0  0  0
  2  1  1  0  0  0  0
  2  4  1  0  0  0  0
  3  2  2  0  0  0  0
  4  6  1  0  0  0  0
  7 10  1  0  0  0  0
  7  1  1  0  0  0  0
  8 13  1  0  0  0  0
  9  8  2  0  0  0  0
  9 10  1  0  0  0  0
 10 11  2  0  0  0  0
 11 12  1  0  0  0  0
 13 16  1  0  0  0  0
 13 12  2  0  0  0  0
 15  8  1  0  0  0  0
 15 14  1  0  0  0  0
 16 17  1  0  0  0  0
 18  4  1  0  0  0  0
 18 19  1  0  0  0  0
 19 20  1  0  0  0  0
 20 21  2  0  0  0  0
 22 21  1  0  0  0  0
 23 22  2  0  0  0  0
 24 23  1  0  0  0  0
 24 19  2  0  0  0  0
M  END
>  <MODEL>
5

>  <REMARK>
 VINA RESULT:    -6.619      8.726     11.344
 INTER + INTRA:          -9.324
 INTER:                  -8.871
 INTRA:                  -0.453
 UNBOUND:                -0.577
  Name = CHEMBL3220063
  7 active torsions:
  status: ('A' for Active; 'I' for Inactive)
    1  A    between atoms: C_1  and  O_2
    2  A    between atoms: O_2  and  C_3
    3  A    between atoms: C_5  and  C_6
    4  A    between atoms: C_6  and  N_7
    5  A    between atoms: N_10  and  C_11
    6  A    between atoms: C_11  and  C_12
    7  A    between atoms: C_20  and  O_21
                            x       y       z     vdW  Elec       q    Type
                         _______ _______ _______ _____ _____    ______ ____

>  <TORSDO>
F 6

>  <SCORE>
-6.619

>  <RMSD_LB>
8.726

>  <RMSD_UB>
11.344

$$$$
CHEMBL3220063
 OpenBabel10172500423D

 24 25  0  0  0  0  0  0  0  0999 V2000
  146.0640  138.7380  150.1020 N   0  0  0  0  0  0  0  0  0  0  0  0
  144.7000  138.6690  149.9910 C   0  0  0  0  0  0  0  0  0  0  0  0
  143.9680  139.6430  149.8960 O   0  0  0  0  0  0  0  0  0  0  0  0
  144.2590  137.3700  149.9980 N   0  0  0  0  0  0  0  0  0  0  0  0
  146.5860  137.9180  150.2560 H   0  0  0  0  0  0  0  0  0  0  0  0
  144.9100  136.6310  149.9970 H   0  0  0  0  0  0  0  0  0  0  0  0
  146.7420  140.0160  149.9970 C   0  0  0  0  0  2  0  0  0  0  0  0
  147.6140  140.1350  153.7250 C   0  0  0  0  0  0  0  0  0  0  0  0
  147.0360  139.7490  152.5090 C   0  0  0  0  0  3  0  0  0  0  0  0
  147.3170  140.4530  151.3220 C   0  0  0  0  0  0  0  0  0  0  0  0
  148.1930  141.5480  151.3730 C   0  0  0  0  0  3  0  0  0  0  0  0
  148.7700  141.9430  152.5790 C   0  0  0  0  0  3  0  0  0  0  0  0
  148.4790  141.2380  153.7440 C   0  0  0  0  0  0  0  0  0  0  0  0
  146.1630  138.8800  155.1510 C   0  0  0  0  0  1  0  0  0  0  0  0
  147.4140  139.5130  154.9300 O   0  0  0  0  0  0  0  0  0  0  0  0
  149.0480  141.6230  154.9290 O   0  0  0  0  0  0  0  0  0  0  0  0
  148.5790  142.1830  155.5160 H   0  0  0  0  0  0  0  0  0  0  0  0
  142.8400  137.0810  150.0060 C   0  0  0  0  0  2  0  0  0  0  0  0
  142.2180  137.3530  151.3520 C   0  0  0  0  0  0  0  0  0  0  0  0
  143.0010  137.4180  152.5150 C   0  0  0  0  0  3  0  0  0  0  0  0
  142.4200  137.7430  153.7440 C   0  0  0  0  0  3  0  0  0  0  0  0
  141.0540  138.0060  153.8260 C   0  0  0  0  0  3  0  0  0  0  0  0
  140.2640  137.9390  152.6810 C   0  0  0  0  0  3  0  0  0  0  0  0
  140.8420  137.6150  151.4520 C   0  0  0  0  0  3  0  0  0  0  0  0
  1  5  1  0  0  0  0
  2  4  1  0  0  0  0
  2  1  1  0  0  0  0
  3  2  2  0  0  0  0
  4 18  1  0  0  0  0
  6  4  1  0  0  0  0
  7  1  1  0  0  0  0
  7 10  1  0  0  0  0
  8 13  1  0  0  0  0
  8 15  1  0  0  0  0
  9  8  2  0  0  0  0
 10 11  2  0  0  0  0
 10  9  1  0  0  0  0
 11 12  1  0  0  0  0
 12 13  2  0  0  0  0
 13 16  1  0  0  0  0
 15 14  1  0  0  0  0
 16 17  1  0  0  0  0
 18 19  1  0  0  0  0
 19 24  2  0  0  0  0
 19 20  1  0  0  0  0
 20 21  2  0  0  0  0
 21 22  1  0  0  0  0
 23 22  2  0  0  0  0
 24 23  1  0  0  0  0
M  END
>  <MODEL>
6

>  <REMARK>
 VINA RESULT:    -6.534     10.863     13.376
 INTER + INTRA:          -9.212
 INTER:                  -8.861
 INTRA:                  -0.351
 UNBOUND:                -0.577
  Name = CHEMBL3220063
  7 active torsions:
  status: ('A' for Active; 'I' for Inactive)
    1  A    between atoms: C_1  and  O_2
    2  A    between atoms: O_2  and  C_3
    3  A    between atoms: C_5  and  C_6
    4  A    between atoms: C_6  and  N_7
    5  A    between atoms: N_10  and  C_11
    6  A    between atoms: C_11  and  C_12
    7  A    between atoms: C_20  and  O_21
                            x       y       z     vdW  Elec       q    Type
                         _______ _______ _______ _____ _____    ______ ____

>  <TORSDO>
F 6

>  <SCORE>
-6.534

>  <RMSD_LB>
10.863

>  <RMSD_UB>
13.376

$$$$
CHEMBL3220063
 OpenBabel10172500423D

 24 25  0  0  0  0  0  0  0  0999 V2000
  143.3210  137.7660  149.4250 N   0  0  0  0  0  0  0  0  0  0  0  0
  144.6150  138.0230  149.7940 C   0  0  0  0  0  0  0  0  0  0  0  0
  145.2070  137.4290  150.6840 O   0  0  0  0  0  0  0  0  0  0  0  0
  145.1640  139.0280  149.0390 N   0  0  0  0  0  0  0  0  0  0  0  0
  142.8790  138.3350  148.7550 H   0  0  0  0  0  0  0  0  0  0  0  0
  144.6570  139.4080  148.2860 H   0  0  0  0  0  0  0  0  0  0  0  0
  142.5970  136.6590  150.0200 C   0  0  0  0  0  2  0  0  0  0  0  0
  140.7980  137.9260  153.1560 C   0  0  0  0  0  0  0  0  0  0  0  0
  141.7980  137.4350  152.3060 C   0  0  0  0  0  3  0  0  0  0  0  0
  141.5170  137.1380  150.9580 C   0  0  0  0  0  0  0  0  0  0  0  0
  140.2160  137.3460  150.4740 C   0  0  0  0  0  3  0  0  0  0  0  0
  139.2130  137.8290  151.3120 C   0  0  0  0  0  3  0  0  0  0  0  0
  139.5070  138.1150  152.6430 C   0  0  0  0  0  0  0  0  0  0  0  0
  141.9260  139.2550  154.7900 C   0  0  0  0  0  1  0  0  0  0  0  0
  140.9710  138.2540  154.4750 O   0  0  0  0  0  0  0  0  0  0  0  0
  138.5230  138.5930  153.4680 O   0  0  0  0  0  0  0  0  0  0  0  0
  138.5050  139.5010  153.7000 H   0  0  0  0  0  0  0  0  0  0  0  0
  146.4870  139.5320  149.3450 C   0  0  0  0  0  2  0  0  0  0  0  0
  146.4690  140.4890  150.5100 C   0  0  0  0  0  0  0  0  0  0  0  0
  147.4190  140.4010  151.5390 C   0  0  0  0  0  3  0  0  0  0  0  0
  147.4340  141.3410  152.5730 C   0  0  0  0  0  3  0  0  0  0  0  0
  146.5020  142.3770  152.5920 C   0  0  0  0  0  3  0  0  0  0  0  0
  145.5490  142.4720  151.5810 C   0  0  0  0  0  3  0  0  0  0  0  0
  145.5340  141.5350  150.5470 C   0  0  0  0  0  3  0  0  0  0  0  0
  1  2  1  0  0  0  0
  1  7  1  0  0  0  0
  2  3  2  0  0  0  0
  4 18  1  0  0  0  0
  4  2  1  0  0  0  0
  5  1  1  0  0  0  0
  6  4  1  0  0  0  0
  7 10  1  0  0  0  0
  8 15  1  0  0  0  0
  9  8  2  0  0  0  0
 10  9  1  0  0  0  0
 11 10  2  0  0  0  0
 11 12  1  0  0  0  0
 12 13  2  0  0  0  0
 13  8  1  0  0  0  0
 13 16  1  0  0  0  0
 15 14  1  0  0  0  0
 16 17  1  0  0  0  0
 18 19  1  0  0  0  0
 19 24  2  0  0  0  0
 19 20  1  0  0  0  0
 20 21  2  0  0  0  0
 21 22  1  0  0  0  0
 23 22  2  0  0  0  0
 24 23  1  0  0  0  0
M  END
>  <MODEL>
7

>  <REMARK>
 VINA RESULT:    -6.450      9.570     11.452
 INTER + INTRA:          -9.101
 INTER:                  -8.455
 INTRA:                  -0.646
 UNBOUND:                -0.577
  Name = CHEMBL3220063
  7 active torsions:
  status: ('A' for Active; 'I' for Inactive)
    1  A    between atoms: C_1  and  O_2
    2  A    between atoms: O_2  and  C_3
    3  A    between atoms: C_5  and  C_6
    4  A    between atoms: C_6  and  N_7
    5  A    between atoms: N_10  and  C_11
    6  A    between atoms: C_11  and  C_12
    7  A    between atoms: C_20  and  O_21
                            x       y       z     vdW  Elec       q    Type
                         _______ _______ _______ _____ _____    ______ ____

>  <TORSDO>
F 6

>  <SCORE>
-6.450

>  <RMSD_LB>
9.570

>  <RMSD_UB>
11.452

$$$$
CHEMBL3220063
 OpenBabel10172500423D

 24 25  0  0  0  0  0  0  0  0999 V2000
  143.3640  137.6990  149.3830 N   0  0  0  0  0  0  0  0  0  0  0  0
  144.6390  137.9910  149.7890 C   0  0  0  0  0  0  0  0  0  0  0  0
  145.1930  137.4690  150.7460 O   0  0  0  0  0  0  0  0  0  0  0  0
  145.2180  138.9420  148.9870 N   0  0  0  0  0  0  0  0  0  0  0  0
  142.9500  138.2140  148.6530 H   0  0  0  0  0  0  0  0  0  0  0  0
  144.7430  139.2620  148.1860 H   0  0  0  0  0  0  0  0  0  0  0  0
  142.6180  136.6330  150.0260 C   0  0  0  0  0  2  0  0  0  0  0  0
  139.1510  137.6790  151.2760 C   0  0  0  0  0  0  0  0  0  0  0  0
  140.1790  137.2200  150.4410 C   0  0  0  0  0  3  0  0  0  0  0  0
  141.5110  137.1740  150.8970 C   0  0  0  0  0  0  0  0  0  0  0  0
  141.7960  137.5900  152.2060 C   0  0  0  0  0  3  0  0  0  0  0  0
  140.7820  138.0520  153.0430 C   0  0  0  0  0  3  0  0  0  0  0  0
  139.4700  138.0950  152.5760 C   0  0  0  0  0  0  0  0  0  0  0  0
  137.1080  136.5380  150.7920 C   0  0  0  0  0  1  0  0  0  0  0  0
  137.8270  137.7530  150.9330 O   0  0  0  0  0  0  0  0  0  0  0  0
  138.4720  138.5450  153.3990 O   0  0  0  0  0  0  0  0  0  0  0  0
  137.5940  138.2370  153.2840 H   0  0  0  0  0  0  0  0  0  0  0  0
  146.5240  139.4760  149.3130 C   0  0  0  0  0  2  0  0  0  0  0  0
  146.4630  140.4430  150.4680 C   0  0  0  0  0  0  0  0  0  0  0  0
  147.3450  140.3350  151.5550 C   0  0  0  0  0  3  0  0  0  0  0  0
  147.3250  141.2830  152.5820 C   0  0  0  0  0  3  0  0  0  0  0  0
  146.4260  142.3470  152.5360 C   0  0  0  0  0  3  0  0  0  0  0  0
  145.5410  142.4620  151.4670 C   0  0  0  0  0  3  0  0  0  0  0  0
  145.5600  141.5180  150.4400 C   0  0  0  0  0  3  0  0  0  0  0  0
  1  2  1  0  0  0  0
  1  7  1  0  0  0  0
  2  3  2  0  0  0  0
  4 18  1  0  0  0  0
  4  2  1  0  0  0  0
  5  1  1  0  0  0  0
  6  4  1  0  0  0  0
  7 10  1  0  0  0  0
  8 13  1  0  0  0  0
  9 10  1  0  0  0  0
  9  8  2  0  0  0  0
 10 11  2  0  0  0  0
 11 12  1  0  0  0  0
 13 12  2  0  0  0  0
 13 16  1  0  0  0  0
 14 15  1  0  0  0  0
 15  8  1  0  0  0  0
 17 16  1  0  0  0  0
 18 19  1  0  0  0  0
 19 20  1  0  0  0  0
 20 21  2  0  0  0  0
 22 21  1  0  0  0  0
 23 22  2  0  0  0  0
 24 19  2  0  0  0  0
 24 23  1  0  0  0  0
M  END
>  <MODEL>
8

>  <REMARK>
 VINA RESULT:    -6.436      9.406     10.991
 INTER + INTRA:          -9.083
 INTER:                  -8.549
 INTRA:                  -0.534
 UNBOUND:                -0.577
  Name = CHEMBL3220063
  7 active torsions:
  status: ('A' for Active; 'I' for Inactive)
    1  A    between atoms: C_1  and  O_2
    2  A    between atoms: O_2  and  C_3
    3  A    between atoms: C_5  and  C_6
    4  A    between atoms: C_6  and  N_7
    5  A    between atoms: N_10  and  C_11
    6  A    between atoms: C_11  and  C_12
    7  A    between atoms: C_20  and  O_21
                            x       y       z     vdW  Elec       q    Type
                         _______ _______ _______ _____ _____    ______ ____

>  <TORSDO>
F 6

>  <SCORE>
-6.436

>  <RMSD_LB>
9.406

>  <RMSD_UB>
10.991

$$$$
CHEMBL3220063
 OpenBabel10172500423D

 24 25  0  0  0  0  0  0  0  0999 V2000
  145.0360  140.5110  149.6600 N   0  0  0  0  0  0  0  0  0  0  0  0
  143.9320  140.0250  149.0100 C   0  0  0  0  0  0  0  0  0  0  0  0
  142.7810  140.3120  149.3040 O   0  0  0  0  0  0  0  0  0  0  0  0
  144.2800  139.1780  147.9900 N   0  0  0  0  0  0  0  0  0  0  0  0
  145.9320  140.1770  149.4240 H   0  0  0  0  0  0  0  0  0  0  0  0
  145.2290  139.0530  147.7580 H   0  0  0  0  0  0  0  0  0  0  0  0
  144.8920  141.5160  150.6960 C   0  0  0  0  0  2  0  0  0  0  0  0
  146.8440  139.5500  153.3410 C   0  0  0  0  0  0  0  0  0  0  0  0
  146.0420  139.8470  152.2310 C   0  0  0  0  0  3  0  0  0  0  0  0
  145.7110  141.1800  151.9170 C   0  0  0  0  0  0  0  0  0  0  0  0
  146.2020  142.2120  152.7320 C   0  0  0  0  0  3  0  0  0  0  0  0
  146.9970  141.9260  153.8410 C   0  0  0  0  0  3  0  0  0  0  0  0
  147.3120  140.6030  154.1400 C   0  0  0  0  0  0  0  0  0  0  0  0
  146.2320  137.4120  154.2170 C   0  0  0  0  0  1  0  0  0  0  0  0
  147.2300  138.2930  153.7250 O   0  0  0  0  0  0  0  0  0  0  0  0
  148.0960  140.3210  155.2270 O   0  0  0  0  0  0  0  0  0  0  0  0
  147.8690  140.6610  156.0700 H   0  0  0  0  0  0  0  0  0  0  0  0
  143.2580  138.4650  147.2510 C   0  0  0  0  0  2  0  0  0  0  0  0
  143.1900  137.0110  147.6430 C   0  0  0  0  0  0  0  0  0  0  0  0
  144.3350  136.1990  147.6240 C   0  0  0  0  0  3  0  0  0  0  0  0
  144.2710  134.8730  148.0600 C   0  0  0  0  0  3  0  0  0  0  0  0
  143.0670  134.3430  148.5200 C   0  0  0  0  0  3  0  0  0  0  0  0
  141.9220  135.1360  148.5380 C   0  0  0  0  0  3  0  0  0  0  0  0
  141.9840  136.4610  148.1030 C   0  0  0  0  0  3  0  0  0  0  0  0
  1  7  1  0  0  0  0
  2  3  2  0  0  0  0
  2  1  1  0  0  0  0
  4  2  1  0  0  0  0
  5  1  1  0  0  0  0
  6  4  1  0  0  0  0
  7 10  1  0  0  0  0
  8 15  1  0  0  0  0
  8 13  1  0  0  0  0
  9  8  2  0  0  0  0
 10  9  1  0  0  0  0
 10 11  2  0  0  0  0
 11 12  1  0  0  0  0
 12 13  2  0  0  0  0
 13 16  1  0  0  0  0
 15 14  1  0  0  0  0
 16 17  1  0  0  0  0
 18 19  1  0  0  0  0
 18  4  1  0  0  0  0
 19 24  1  0  0  0  0
 20 19  2  0  0  0  0
 20 21  1  0  0  0  0
 21 22  2  0  0  0  0
 22 23  1  0  0  0  0
 24 23  2  0  0  0  0
M  END
>  <MODEL>
9

>  <REMARK>
 VINA RESULT:    -6.017     10.886     13.711
 INTER + INTRA:          -8.529
 INTER:                  -7.951
 INTRA:                  -0.577
 UNBOUND:                -0.577
  Name = CHEMBL3220063
  7 active torsions:
  status: ('A' for Active; 'I' for Inactive)
    1  A    between atoms: C_1  and  O_2
    2  A    between atoms: O_2  and  C_3
    3  A    between atoms: C_5  and  C_6
    4  A    between atoms: C_6  and  N_7
    5  A    between atoms: N_10  and  C_11
    6  A    between atoms: C_11  and  C_12
    7  A    between atoms: C_20  and  O_21
                            x       y       z     vdW  Elec       q    Type
                         _______ _______ _______ _____ _____    ______ ____

>  <TORSDO>
F 6

>  <SCORE>
-6.017

>  <RMSD_LB>
10.886

>  <RMSD_UB>
13.711

$$$$
