CHEMBL3342738
 OpenBabel10172500353D

 26 27  0  0  0  0  0  0  0  0999 V2000
  146.3540  141.0220  149.0750 C   0  0  0  0  0  2  0  0  0  0  0  0
  146.5080  142.4770  149.5200 C   0  0  0  0  0  2  0  0  0  0  0  0
  147.6980  142.6450  150.4680 C   0  0  0  0  0  2  0  0  0  0  0  0
  148.1590  140.1730  153.3450 C   0  0  0  0  0  0  0  0  0  0  0  0
  148.3440  140.8590  152.1400 C   0  0  0  0  0  3  0  0  0  0  0  0
  147.4870  141.9120  151.7710 C   0  0  0  0  0  0  0  0  0  0  0  0
  146.4240  142.2570  152.6140 C   0  0  0  0  0  3  0  0  0  0  0  0
  146.2270  141.5780  153.8150 C   0  0  0  0  0  3  0  0  0  0  0  0
  147.0920  140.5460  154.1750 C   0  0  0  0  0  0  0  0  0  0  0  0
  148.7160  137.8570  153.2460 C   0  0  0  0  0  1  0  0  0  0  0  0
  148.9460  139.1450  153.7940 O   0  0  0  0  0  0  0  0  0  0  0  0
  146.9000  139.8810  155.3570 O   0  0  0  0  0  0  0  0  0  0  0  0
  147.5080  139.9930  156.0630 H   0  0  0  0  0  0  0  0  0  0  0  0
  144.9800  140.4750  149.4470 C   0  0  0  0  0  2  0  0  0  0  0  0
  145.0900  139.4870  150.5880 C   0  0  0  0  0  0  0  0  0  0  0  0
  146.0160  138.6840  150.6600 O   0  0  0  0  0  0  0  0  0  0  0  0
  144.0310  139.5580  151.6360 C   0  0  0  0  0  3  0  0  0  0  0  0
  143.3060  138.4750  151.9510 C   0  0  0  0  0  3  0  0  0  0  0  0
  142.2520  138.4610  152.9750 C   0  0  0  0  0  0  0  0  0  0  0  0
  142.5000  138.7930  154.3150 C   0  0  0  0  0  3  0  0  0  0  0  0
  141.4670  138.7880  155.2580 C   0  0  0  0  0  3  0  0  0  0  0  0
  140.1770  138.4640  154.8550 C   0  0  0  0  0  0  0  0  0  0  0  0
  139.9050  138.1500  153.5300 C   0  0  0  0  0  3  0  0  0  0  0  0
  140.9390  138.1550  152.5900 C   0  0  0  0  0  3  0  0  0  0  0  0
  139.1390  138.4470  155.7400 O   0  0  0  0  0  0  0  0  0  0  0  0
  138.8290  137.6320  156.0820 H   0  0  0  0  0  0  0  0  0  0  0  0
  1 14  1  0  0  0  0
  1  2  1  0  0  0  0
  2  3  1  0  0  0  0
  3  6  1  0  0  0  0
  4 11  1  0  0  0  0
  4  9  1  0  0  0  0
  5  4  2  0  0  0  0
  6  5  1  0  0  0  0
  6  7  2  0  0  0  0
  7  8  1  0  0  0  0
  8  9  2  0  0  0  0
  9 12  1  0  0  0  0
 10 11  1  0  0  0  0
 12 13  1  0  0  0  0
 14 15  1  0  0  0  0
 15 16  2  0  0  0  0
 15 17  1  0  0  0  0
 17 18  2  0  0  0  0
 18 19  1  0  0  0  0
 19 20  1  0  0  0  0
 20 21  2  0  0  0  0
 22 21  1  0  0  0  0
 22 25  1  0  0  0  0
 23 22  2  0  0  0  0
 24 19  2  0  0  0  0
 24 23  1  0  0  0  0
 25 26  1  0  0  0  0
M  END
>  <MODEL>
1

>  <REMARK>
 VINA RESULT:    -6.833      0.000      0.000
 INTER + INTRA:         -12.359
 INTER:                 -10.714
 INTRA:                  -1.645
 UNBOUND:                -1.930
  Name = CHEMBL3342738
  11 active torsions:
  status: ('A' for Active; 'I' for Inactive)
    1  A    between atoms: C_1  and  O_2
    2  A    between atoms: O_2  and  C_3
    3  A    between atoms: C_5  and  C_6
    4  A    between atoms: C_6  and  C_7
    5  A    between atoms: C_7  and  C_8
    6  A    between atoms: C_8  and  C_9
    7  A    between atoms: C_9  and  C_10
    8  A    between atoms: C_10  and  C_12
    9  A    between atoms: C_13  and  C_14
   10  A    between atoms: C_17  and  O_18
   11  A    between atoms: C_23  and  O_24
                            x       y       z     vdW  Elec       q    Type
                         _______ _______ _______ _____ _____    ______ ____

>  <TORSDO>
F 10

>  <SCORE>
-6.833

>  <RMSD_LB>
0.000

>  <RMSD_UB>
0.000

$$$$
CHEMBL3342738
 OpenBabel10172500353D

 26 27  0  0  0  0  0  0  0  0999 V2000
  146.7290  139.8980  148.9480 C   0  0  0  0  0  2  0  0  0  0  0  0
  145.8850  141.1640  149.1020 C   0  0  0  0  0  2  0  0  0  0  0  0
  146.7190  142.3280  149.6410 C   0  0  0  0  0  2  0  0  0  0  0  0
  146.7220  141.5020  153.3710 C   0  0  0  0  0  0  0  0  0  0  0  0
  146.2860  141.7450  152.0640 C   0  0  0  0  0  3  0  0  0  0  0  0
  147.2020  142.0690  151.0470 C   0  0  0  0  0  0  0  0  0  0  0  0
  148.5630  142.1700  151.3580 C   0  0  0  0  0  3  0  0  0  0  0  0
  149.0090  141.9330  152.6580 C   0  0  0  0  0  3  0  0  0  0  0  0
  148.0920  141.6000  153.6530 C   0  0  0  0  0  0  0  0  0  0  0  0
  145.2910  139.8920  154.3930 C   0  0  0  0  0  1  0  0  0  0  0  0
  145.9080  141.1690  154.4230 O   0  0  0  0  0  0  0  0  0  0  0  0
  148.5310  141.3650  154.9290 O   0  0  0  0  0  0  0  0  0  0  0  0
  147.9170  141.1400  155.6020 H   0  0  0  0  0  0  0  0  0  0  0  0
  145.8600  138.6470  149.0010 C   0  0  0  0  0  2  0  0  0  0  0  0
  145.3980  138.3770  150.4170 C   0  0  0  0  0  0  0  0  0  0  0  0
  146.1960  138.1690  151.3280 O   0  0  0  0  0  0  0  0  0  0  0  0
  143.9270  138.4050  150.6550 C   0  0  0  0  0  3  0  0  0  0  0  0
  143.4100  137.9420  151.8030 C   0  0  0  0  0  3  0  0  0  0  0  0
  141.9740  137.9420  152.1170 C   0  0  0  0  0  0  0  0  0  0  0  0
  140.9970  137.5870  151.1750 C   0  0  0  0  0  3  0  0  0  0  0  0
  139.6410  137.5790  151.5170 C   0  0  0  0  0  3  0  0  0  0  0  0
  139.2610  137.9150  152.8110 C   0  0  0  0  0  0  0  0  0  0  0  0
  140.2130  138.2510  153.7650 C   0  0  0  0  0  3  0  0  0  0  0  0
  141.5670  138.2600  153.4210 C   0  0  0  0  0  3  0  0  0  0  0  0
  137.9510  137.9200  153.1880 O   0  0  0  0  0  0  0  0  0  0  0  0
  137.7170  138.1490  154.0660 H   0  0  0  0  0  0  0  0  0  0  0  0
  1 14  1  0  0  0  0
  1  2  1  0  0  0  0
  2  3  1  0  0  0  0
  3  6  1  0  0  0  0
  4  9  1  0  0  0  0
  4 11  1  0  0  0  0
  5  4  2  0  0  0  0
  6  7  2  0  0  0  0
  6  5  1  0  0  0  0
  7  8  1  0  0  0  0
  8  9  2  0  0  0  0
  9 12  1  0  0  0  0
 10 11  1  0  0  0  0
 12 13  1  0  0  0  0
 14 15  1  0  0  0  0
 15 17  1  0  0  0  0
 15 16  2  0  0  0  0
 17 18  2  0  0  0  0
 18 19  1  0  0  0  0
 19 24  1  0  0  0  0
 20 21  1  0  0  0  0
 20 19  2  0  0  0  0
 21 22  2  0  0  0  0
 22 25  1  0  0  0  0
 22 23  1  0  0  0  0
 24 23  2  0  0  0  0
 25 26  1  0  0  0  0
M  END
>  <MODEL>
2

>  <REMARK>
 VINA RESULT:    -6.501      1.530      2.290
 INTER + INTRA:         -11.852
 INTER:                 -10.514
 INTRA:                  -1.337
 UNBOUND:                -1.930
  Name = CHEMBL3342738
  11 active torsions:
  status: ('A' for Active; 'I' for Inactive)
    1  A    between atoms: C_1  and  O_2
    2  A    between atoms: O_2  and  C_3
    3  A    between atoms: C_5  and  C_6
    4  A    between atoms: C_6  and  C_7
    5  A    between atoms: C_7  and  C_8
    6  A    between atoms: C_8  and  C_9
    7  A    between atoms: C_9  and  C_10
    8  A    between atoms: C_10  and  C_12
    9  A    between atoms: C_13  and  C_14
   10  A    between atoms: C_17  and  O_18
   11  A    between atoms: C_23  and  O_24
                            x       y       z     vdW  Elec       q    Type
                         _______ _______ _______ _____ _____    ______ ____

>  <TORSDO>
F 10

>  <SCORE>
-6.501

>  <RMSD_LB>
1.530

>  <RMSD_UB>
2.290

$$$$
CHEMBL3342738
 OpenBabel10172500353D

 26 27  0  0  0  0  0  0  0  0999 V2000
  140.3210  138.6100  152.9890 C   0  0  0  0  0  2  0  0  0  0  0  0
  139.7590  138.0410  154.2920 C   0  0  0  0  0  2  0  0  0  0  0  0
  138.3490  138.5700  154.5670 C   0  0  0  0  0  2  0  0  0  0  0  0
  136.6940  136.8250  157.5370 C   0  0  0  0  0  0  0  0  0  0  0  0
  137.4490  137.7240  156.7760 C   0  0  0  0  0  3  0  0  0  0  0  0
  137.5310  137.5930  155.3780 C   0  0  0  0  0  0  0  0  0  0  0  0
  136.8650  136.5350  154.7490 C   0  0  0  0  0  3  0  0  0  0  0  0
  136.1120  135.6310  155.4970 C   0  0  0  0  0  3  0  0  0  0  0  0
  136.0290  135.7810  156.8800 C   0  0  0  0  0  0  0  0  0  0  0  0
  136.0010  138.0670  159.4500 C   0  0  0  0  0  1  0  0  0  0  0  0
  136.5450  136.8790  158.8980 O   0  0  0  0  0  0  0  0  0  0  0  0
  135.2860  134.8940  157.6150 O   0  0  0  0  0  0  0  0  0  0  0  0
  134.5580  135.1980  158.1220 H   0  0  0  0  0  0  0  0  0  0  0  0
  140.4280  137.5310  151.9170 C   0  0  0  0  0  2  0  0  0  0  0  0
  139.3680  137.7270  150.8550 C   0  0  0  0  0  0  0  0  0  0  0  0
  139.6250  138.2560  149.7760 O   0  0  0  0  0  0  0  0  0  0  0  0
  138.0040  137.2170  151.1720 C   0  0  0  0  0  3  0  0  0  0  0  0
  137.4710  136.2050  150.4720 C   0  0  0  0  0  3  0  0  0  0  0  0
  136.1370  135.6410  150.7280 C   0  0  0  0  0  0  0  0  0  0  0  0
  135.9130  134.6410  151.6850 C   0  0  0  0  0  3  0  0  0  0  0  0
  134.6270  134.1430  151.9140 C   0  0  0  0  0  3  0  0  0  0  0  0
  133.5570  134.6590  151.1930 C   0  0  0  0  0  0  0  0  0  0  0  0
  133.7520  135.6630  150.2540 C   0  0  0  0  0  3  0  0  0  0  0  0
  135.0390  136.1580  150.0260 C   0  0  0  0  0  3  0  0  0  0  0  0
  132.2860  134.2040  151.3840 O   0  0  0  0  0  0  0  0  0  0  0  0
  131.7560  134.5670  152.0660 H   0  0  0  0  0  0  0  0  0  0  0  0
  1  2  1  0  0  0  0
  2  3  1  0  0  0  0
  3  6  1  0  0  0  0
  4 11  1  0  0  0  0
  5  4  2  0  0  0  0
  6  5  1  0  0  0  0
  7  6  2  0  0  0  0
  7  8  1  0  0  0  0
  8  9  2  0  0  0  0
  9  4  1  0  0  0  0
  9 12  1  0  0  0  0
 11 10  1  0  0  0  0
 12 13  1  0  0  0  0
 14  1  1  0  0  0  0
 15 17  1  0  0  0  0
 15 14  1  0  0  0  0
 16 15  2  0  0  0  0
 18 19  1  0  0  0  0
 18 17  2  0  0  0  0
 19 20  1  0  0  0  0
 20 21  2  0  0  0  0
 22 25  1  0  0  0  0
 22 21  1  0  0  0  0
 23 22  2  0  0  0  0
 24 23  1  0  0  0  0
 24 19  2  0  0  0  0
 25 26  1  0  0  0  0
M  END
>  <MODEL>
3

>  <REMARK>
 VINA RESULT:    -6.368      6.354      9.851
 INTER + INTRA:         -11.648
 INTER:                 -10.127
 INTRA:                  -1.521
 UNBOUND:                -1.930
  Name = CHEMBL3342738
  11 active torsions:
  status: ('A' for Active; 'I' for Inactive)
    1  A    between atoms: C_1  and  O_2
    2  A    between atoms: O_2  and  C_3
    3  A    between atoms: C_5  and  C_6
    4  A    between atoms: C_6  and  C_7
    5  A    between atoms: C_7  and  C_8
    6  A    between atoms: C_8  and  C_9
    7  A    between atoms: C_9  and  C_10
    8  A    between atoms: C_10  and  C_12
    9  A    between atoms: C_13  and  C_14
   10  A    between atoms: C_17  and  O_18
   11  A    between atoms: C_23  and  O_24
                            x       y       z     vdW  Elec       q    Type
                         _______ _______ _______ _____ _____    ______ ____

>  <TORSDO>
F 10

>  <SCORE>
-6.368

>  <RMSD_LB>
6.354

>  <RMSD_UB>
9.851

$$$$
CHEMBL3342738
 OpenBabel10172500353D

 26 27  0  0  0  0  0  0  0  0999 V2000
  139.5410  137.6140  151.7010 C   0  0  0  0  0  2  0  0  0  0  0  0
  138.0830  137.8250  151.2890 C   0  0  0  0  0  2  0  0  0  0  0  0
  137.5260  136.5970  150.5640 C   0  0  0  0  0  2  0  0  0  0  0  0
  134.7150  134.2240  151.5980 C   0  0  0  0  0  0  0  0  0  0  0  0
  135.6480  134.9220  150.8230 C   0  0  0  0  0  3  0  0  0  0  0  0
  136.5230  135.8520  151.4120 C   0  0  0  0  0  0  0  0  0  0  0  0
  136.4400  136.0940  152.7880 C   0  0  0  0  0  3  0  0  0  0  0  0
  135.5120  135.4080  153.5700 C   0  0  0  0  0  3  0  0  0  0  0  0
  134.6600  134.4800  152.9750 C   0  0  0  0  0  0  0  0  0  0  0  0
  132.9260  133.7120  150.1070 C   0  0  0  0  0  1  0  0  0  0  0  0
  133.8310  133.2940  151.1170 O   0  0  0  0  0  0  0  0  0  0  0  0
  133.7500  133.8030  153.7450 O   0  0  0  0  0  0  0  0  0  0  0  0
  132.8720  134.1240  153.8250 H   0  0  0  0  0  0  0  0  0  0  0  0
  140.0440  138.7720  152.5550 C   0  0  0  0  0  2  0  0  0  0  0  0
  140.3560  138.3030  153.9600 C   0  0  0  0  0  0  0  0  0  0  0  0
  141.4900  138.3720  154.4280 O   0  0  0  0  0  0  0  0  0  0  0  0
  139.2100  137.7790  154.7580 C   0  0  0  0  0  3  0  0  0  0  0  0
  139.2770  137.7250  156.0960 C   0  0  0  0  0  3  0  0  0  0  0  0
  138.1890  137.2310  156.9540 C   0  0  0  0  0  0  0  0  0  0  0  0
  137.3780  136.1460  156.5910 C   0  0  0  0  0  3  0  0  0  0  0  0
  136.3660  135.6920  157.4430 C   0  0  0  0  0  3  0  0  0  0  0  0
  136.1740  136.3170  158.6690 C   0  0  0  0  0  0  0  0  0  0  0  0
  136.9780  137.3800  159.0570 C   0  0  0  0  0  3  0  0  0  0  0  0
  137.9870  137.8330  158.2040 C   0  0  0  0  0  3  0  0  0  0  0  0
  135.2000  135.9060  159.5300 O   0  0  0  0  0  0  0  0  0  0  0  0
  135.0500  136.3770  160.3260 H   0  0  0  0  0  0  0  0  0  0  0  0
  1 14  1  0  0  0  0
  2  1  1  0  0  0  0
  3  2  1  0  0  0  0
  3  6  1  0  0  0  0
  4  9  1  0  0  0  0
  5  6  1  0  0  0  0
  5  4  2  0  0  0  0
  6  7  2  0  0  0  0
  7  8  1  0  0  0  0
  9  8  2  0  0  0  0
  9 12  1  0  0  0  0
 10 11  1  0  0  0  0
 11  4  1  0  0  0  0
 12 13  1  0  0  0  0
 14 15  1  0  0  0  0
 15 16  2  0  0  0  0
 15 17  1  0  0  0  0
 17 18  2  0  0  0  0
 18 19  1  0  0  0  0
 19 24  1  0  0  0  0
 20 19  2  0  0  0  0
 20 21  1  0  0  0  0
 21 22  2  0  0  0  0
 22 23  1  0  0  0  0
 22 25  1  0  0  0  0
 24 23  2  0  0  0  0
 25 26  1  0  0  0  0
M  END
>  <MODEL>
4

>  <REMARK>
 VINA RESULT:    -6.363      6.001     10.325
 INTER + INTRA:         -11.641
 INTER:                 -10.297
 INTRA:                  -1.344
 UNBOUND:                -1.930
  Name = CHEMBL3342738
  11 active torsions:
  status: ('A' for Active; 'I' for Inactive)
    1  A    between atoms: C_1  and  O_2
    2  A    between atoms: O_2  and  C_3
    3  A    between atoms: C_5  and  C_6
    4  A    between atoms: C_6  and  C_7
    5  A    between atoms: C_7  and  C_8
    6  A    between atoms: C_8  and  C_9
    7  A    between atoms: C_9  and  C_10
    8  A    between atoms: C_10  and  C_12
    9  A    between atoms: C_13  and  C_14
   10  A    between atoms: C_17  and  O_18
   11  A    between atoms: C_23  and  O_24
                            x       y       z     vdW  Elec       q    Type
                         _______ _______ _______ _____ _____    ______ ____

>  <TORSDO>
F 10

>  <SCORE>
-6.363

>  <RMSD_LB>
6.001

>  <RMSD_UB>
10.325

$$$$
CHEMBL3342738
 OpenBabel10172500353D

 26 27  0  0  0  0  0  0  0  0999 V2000
  139.0860  137.5080  156.1550 C   0  0  0  0  0  2  0  0  0  0  0  0
  139.7870  138.2610  155.0230 C   0  0  0  0  0  2  0  0  0  0  0  0
  138.8140  138.5970  153.8910 C   0  0  0  0  0  2  0  0  0  0  0  0
  141.0290  137.2300  151.0930 C   0  0  0  0  0  0  0  0  0  0  0  0
  140.6140  137.7920  152.3060 C   0  0  0  0  0  3  0  0  0  0  0  0
  139.2480  137.9900  152.5780 C   0  0  0  0  0  0  0  0  0  0  0  0
  138.2990  137.6380  151.6120 C   0  0  0  0  0  3  0  0  0  0  0  0
  138.7000  137.0800  150.3990 C   0  0  0  0  0  3  0  0  0  0  0  0
  140.0560  136.8780  150.1480 C   0  0  0  0  0  0  0  0  0  0  0  0
  143.1570  138.1120  150.4800 C   0  0  0  0  0  1  0  0  0  0  0  0
  142.3310  136.9880  150.7430 O   0  0  0  0  0  0  0  0  0  0  0  0
  140.4500  136.3260  148.9560 O   0  0  0  0  0  0  0  0  0  0  0  0
  140.2650  136.7690  148.1510 H   0  0  0  0  0  0  0  0  0  0  0  0
  137.5710  137.6370  156.0460 C   0  0  0  0  0  2  0  0  0  0  0  0
  136.8980  136.3240  156.3840 C   0  0  0  0  0  0  0  0  0  0  0  0
  137.1030  135.7480  157.4490 O   0  0  0  0  0  0  0  0  0  0  0  0
  135.9510  135.7800  155.3680 C   0  0  0  0  0  3  0  0  0  0  0  0
  136.2670  135.7870  154.0650 C   0  0  0  0  0  3  0  0  0  0  0  0
  135.3940  135.2640  153.0040 C   0  0  0  0  0  0  0  0  0  0  0  0
  134.0220  135.5490  152.9490 C   0  0  0  0  0  3  0  0  0  0  0  0
  133.2270  135.0490  151.9130 C   0  0  0  0  0  3  0  0  0  0  0  0
  133.8100  134.2720  150.9200 C   0  0  0  0  0  0  0  0  0  0  0  0
  135.1700  133.9920  150.9430 C   0  0  0  0  0  3  0  0  0  0  0  0
  135.9620  134.4920  151.9810 C   0  0  0  0  0  3  0  0  0  0  0  0
  133.0730  133.7640  149.8910 O   0  0  0  0  0  0  0  0  0  0  0  0
  133.0710  132.8420  149.7260 H   0  0  0  0  0  0  0  0  0  0  0  0
  2  1  1  0  0  0  0
  3  2  1  0  0  0  0
  4  5  1  0  0  0  0
  5  6  2  0  0  0  0
  6  3  1  0  0  0  0
  7  6  1  0  0  0  0
  8  7  2  0  0  0  0
  9  8  1  0  0  0  0
  9  4  2  0  0  0  0
 10 11  1  0  0  0  0
 11  4  1  0  0  0  0
 12  9  1  0  0  0  0
 13 12  1  0  0  0  0
 14  1  1  0  0  0  0
 14 15  1  0  0  0  0
 15 16  2  0  0  0  0
 17 15  1  0  0  0  0
 18 17  2  0  0  0  0
 19 18  1  0  0  0  0
 20 19  1  0  0  0  0
 21 20  2  0  0  0  0
 22 23  2  0  0  0  0
 22 21  1  0  0  0  0
 23 24  1  0  0  0  0
 24 19  2  0  0  0  0
 25 22  1  0  0  0  0
 26 25  1  0  0  0  0
M  END
>  <MODEL>
5

>  <REMARK>
 VINA RESULT:    -6.275      4.727      9.067
 INTER + INTRA:         -11.507
 INTER:                  -9.783
 INTRA:                  -1.724
 UNBOUND:                -1.930
  Name = CHEMBL3342738
  11 active torsions:
  status: ('A' for Active; 'I' for Inactive)
    1  A    between atoms: C_1  and  O_2
    2  A    between atoms: O_2  and  C_3
    3  A    between atoms: C_5  and  C_6
    4  A    between atoms: C_6  and  C_7
    5  A    between atoms: C_7  and  C_8
    6  A    between atoms: C_8  and  C_9
    7  A    between atoms: C_9  and  C_10
    8  A    between atoms: C_10  and  C_12
    9  A    between atoms: C_13  and  C_14
   10  A    between atoms: C_17  and  O_18
   11  A    between atoms: C_23  and  O_24
                            x       y       z     vdW  Elec       q    Type
                         _______ _______ _______ _____ _____    ______ ____

>  <TORSDO>
F 10

>  <SCORE>
-6.275

>  <RMSD_LB>
4.727

>  <RMSD_UB>
9.067

$$$$
CHEMBL3342738
 OpenBabel10172500353D

 26 27  0  0  0  0  0  0  0  0999 V2000
  147.1490  137.2640  154.5740 C   0  0  0  0  0  2  0  0  0  0  0  0
  145.6960  136.9680  154.1980 C   0  0  0  0  0  2  0  0  0  0  0  0
  145.5440  136.7540  152.6900 C   0  0  0  0  0  2  0  0  0  0  0  0
  141.8570  137.7550  152.6980 C   0  0  0  0  0  0  0  0  0  0  0  0
  143.1730  137.5270  153.1150 C   0  0  0  0  0  3  0  0  0  0  0  0
  144.1270  136.9940  152.2290 C   0  0  0  0  0  0  0  0  0  0  0  0
  143.7430  136.6710  150.9220 C   0  0  0  0  0  3  0  0  0  0  0  0
  142.4340  136.8910  150.4970 C   0  0  0  0  0  3  0  0  0  0  0  0
  141.5020  137.4310  151.3820 C   0  0  0  0  0  0  0  0  0  0  0  0
  141.1350  138.4290  154.8680 C   0  0  0  0  0  1  0  0  0  0  0  0
  140.8630  138.2790  153.4830 O   0  0  0  0  0  0  0  0  0  0  0  0
  140.2160  137.6490  150.9620 O   0  0  0  0  0  0  0  0  0  0  0  0
  140.0530  138.1700  150.1990 H   0  0  0  0  0  0  0  0  0  0  0  0
  147.2780  138.6300  155.2370 C   0  0  0  0  0  2  0  0  0  0  0  0
  147.9470  139.6160  154.3020 C   0  0  0  0  0  0  0  0  0  0  0  0
  148.8320  140.3750  154.6890 O   0  0  0  0  0  0  0  0  0  0  0  0
  147.4970  139.5970  152.8810 C   0  0  0  0  0  3  0  0  0  0  0  0
  146.4010  140.2720  152.5010 C   0  0  0  0  0  3  0  0  0  0  0  0
  145.8970  140.3110  151.1210 C   0  0  0  0  0  0  0  0  0  0  0  0
  146.7500  140.3250  150.0070 C   0  0  0  0  0  3  0  0  0  0  0  0
  146.2330  140.3410  148.7080 C   0  0  0  0  0  3  0  0  0  0  0  0
  144.8560  140.3290  148.5220 C   0  0  0  0  0  0  0  0  0  0  0  0
  143.9930  140.2950  149.6090 C   0  0  0  0  0  3  0  0  0  0  0  0
  144.5120  140.2800  150.9060 C   0  0  0  0  0  3  0  0  0  0  0  0
  144.3080  140.3430  147.2730 O   0  0  0  0  0  0  0  0  0  0  0  0
  143.6370  140.9620  147.0630 H   0  0  0  0  0  0  0  0  0  0  0  0
  1 14  1  0  0  0  0
  2  1  1  0  0  0  0
  3  2  1  0  0  0  0
  4  5  1  0  0  0  0
  4 11  1  0  0  0  0
  6  3  1  0  0  0  0
  6  5  2  0  0  0  0
  7  6  1  0  0  0  0
  8  7  2  0  0  0  0
  8  9  1  0  0  0  0
  9  4  2  0  0  0  0
 11 10  1  0  0  0  0
 12  9  1  0  0  0  0
 13 12  1  0  0  0  0
 15 16  2  0  0  0  0
 15 14  1  0  0  0  0
 17 15  1  0  0  0  0
 18 17  2  0  0  0  0
 19 18  1  0  0  0  0
 20 19  2  0  0  0  0
 21 20  1  0  0  0  0
 22 21  2  0  0  0  0
 22 23  1  0  0  0  0
 23 24  2  0  0  0  0
 24 19  1  0  0  0  0
 25 22  1  0  0  0  0
 26 25  1  0  0  0  0
M  END
>  <MODEL>
6

>  <REMARK>
 VINA RESULT:    -6.084      2.153      6.661
 INTER + INTRA:         -11.216
 INTER:                  -9.130
 INTRA:                  -2.085
 UNBOUND:                -1.930
  Name = CHEMBL3342738
  11 active torsions:
  status: ('A' for Active; 'I' for Inactive)
    1  A    between atoms: C_1  and  O_2
    2  A    between atoms: O_2  and  C_3
    3  A    between atoms: C_5  and  C_6
    4  A    between atoms: C_6  and  C_7
    5  A    between atoms: C_7  and  C_8
    6  A    between atoms: C_8  and  C_9
    7  A    between atoms: C_9  and  C_10
    8  A    between atoms: C_10  and  C_12
    9  A    between atoms: C_13  and  C_14
   10  A    between atoms: C_17  and  O_18
   11  A    between atoms: C_23  and  O_24
                            x       y       z     vdW  Elec       q    Type
                         _______ _______ _______ _____ _____    ______ ____

>  <TORSDO>
F 10

>  <SCORE>
-6.084

>  <RMSD_LB>
2.153

>  <RMSD_UB>
6.661

$$$$
CHEMBL3342738
 OpenBabel10172500353D

 26 27  0  0  0  0  0  0  0  0999 V2000
  140.6110  137.7920  155.4020 C   0  0  0  0  0  2  0  0  0  0  0  0
  141.7180  138.8410  155.2980 C   0  0  0  0  0  2  0  0  0  0  0  0
  142.4240  138.7740  153.9420 C   0  0  0  0  0  2  0  0  0  0  0  0
  146.1830  138.8420  154.6260 C   0  0  0  0  0  0  0  0  0  0  0  0
  144.8480  139.2410  154.4950 C   0  0  0  0  0  3  0  0  0  0  0  0
  143.8610  138.3300  154.0780 C   0  0  0  0  0  0  0  0  0  0  0  0
  144.2280  137.0150  153.7720 C   0  0  0  0  0  3  0  0  0  0  0  0
  145.5560  136.6060  153.8960 C   0  0  0  0  0  3  0  0  0  0  0  0
  146.5220  137.5160  154.3220 C   0  0  0  0  0  0  0  0  0  0  0  0
  147.5240  140.7710  154.2210 C   0  0  0  0  0  1  0  0  0  0  0  0
  147.2100  139.6520  155.0350 O   0  0  0  0  0  0  0  0  0  0  0  0
  147.8250  137.1130  154.4460 O   0  0  0  0  0  0  0  0  0  0  0  0
  148.0220  136.2470  154.7490 H   0  0  0  0  0  0  0  0  0  0  0  0
  139.2340  138.4280  155.2490 C   0  0  0  0  0  2  0  0  0  0  0  0
  138.2350  137.7670  156.1740 C   0  0  0  0  0  0  0  0  0  0  0  0
  138.1550  138.0700  157.3620 O   0  0  0  0  0  0  0  0  0  0  0  0
  137.3320  136.7490  155.5630 C   0  0  0  0  0  3  0  0  0  0  0  0
  136.9950  136.8240  154.2670 C   0  0  0  0  0  3  0  0  0  0  0  0
  136.1180  135.8580  153.5890 C   0  0  0  0  0  0  0  0  0  0  0  0
  136.1820  135.6230  152.2070 C   0  0  0  0  0  3  0  0  0  0  0  0
  135.3450  134.6810  151.6000 C   0  0  0  0  0  3  0  0  0  0  0  0
  134.4500  133.9610  152.3820 C   0  0  0  0  0  0  0  0  0  0  0  0
  134.3830  134.1620  153.7540 C   0  0  0  0  0  3  0  0  0  0  0  0
  135.2190  135.1050  154.3570 C   0  0  0  0  0  3  0  0  0  0  0  0
  133.6160  133.0320  151.8320 O   0  0  0  0  0  0  0  0  0  0  0  0
  132.8010  132.8310  152.2480 H   0  0  0  0  0  0  0  0  0  0  0  0
  2  1  1  0  0  0  0
  3  6  1  0  0  0  0
  3  2  1  0  0  0  0
  4 11  1  0  0  0  0
  5  4  1  0  0  0  0
  6  5  2  0  0  0  0
  7  8  2  0  0  0  0
  7  6  1  0  0  0  0
  8  9  1  0  0  0  0
  9 12  1  0  0  0  0
  9  4  2  0  0  0  0
 10 11  1  0  0  0  0
 12 13  1  0  0  0  0
 14  1  1  0  0  0  0
 14 15  1  0  0  0  0
 15 16  2  0  0  0  0
 17 15  1  0  0  0  0
 18 17  2  0  0  0  0
 19 18  1  0  0  0  0
 19 24  1  0  0  0  0
 20 19  2  0  0  0  0
 21 20  1  0  0  0  0
 21 22  2  0  0  0  0
 22 23  1  0  0  0  0
 23 24  2  0  0  0  0
 25 26  1  0  0  0  0
 25 22  1  0  0  0  0
M  END
>  <MODEL>
7

>  <REMARK>
 VINA RESULT:    -6.040      3.856      6.856
 INTER + INTRA:         -11.148
 INTER:                 -10.461
 INTRA:                  -0.687
 UNBOUND:                -1.930
  Name = CHEMBL3342738
  11 active torsions:
  status: ('A' for Active; 'I' for Inactive)
    1  A    between atoms: C_1  and  O_2
    2  A    between atoms: O_2  and  C_3
    3  A    between atoms: C_5  and  C_6
    4  A    between atoms: C_6  and  C_7
    5  A    between atoms: C_7  and  C_8
    6  A    between atoms: C_8  and  C_9
    7  A    between atoms: C_9  and  C_10
    8  A    between atoms: C_10  and  C_12
    9  A    between atoms: C_13  and  C_14
   10  A    between atoms: C_17  and  O_18
   11  A    between atoms: C_23  and  O_24
                            x       y       z     vdW  Elec       q    Type
                         _______ _______ _______ _____ _____    ______ ____

>  <TORSDO>
F 10

>  <SCORE>
-6.040

>  <RMSD_LB>
3.856

>  <RMSD_UB>
6.856

$$$$
CHEMBL3342738
 OpenBabel10172500353D

 26 27  0  0  0  0  0  0  0  0999 V2000
  143.6900  137.7720  148.7870 C   0  0  0  0  0  2  0  0  0  0  0  0
  143.7440  136.7290  149.9030 C   0  0  0  0  0  2  0  0  0  0  0  0
  142.4920  136.7880  150.7820 C   0  0  0  0  0  2  0  0  0  0  0  0
  141.8200  138.7830  153.9720 C   0  0  0  0  0  0  0  0  0  0  0  0
  141.6250  138.0130  152.8190 C   0  0  0  0  0  3  0  0  0  0  0  0
  142.7160  137.6190  152.0230 C   0  0  0  0  0  0  0  0  0  0  0  0
  144.0070  138.0230  152.3810 C   0  0  0  0  0  3  0  0  0  0  0  0
  144.2140  138.7920  153.5250 C   0  0  0  0  0  3  0  0  0  0  0  0
  143.1250  139.1650  154.3120 C   0  0  0  0  0  0  0  0  0  0  0  0
  140.1230  138.2100  155.5450 C   0  0  0  0  0  1  0  0  0  0  0  0
  140.8250  139.2030  154.8140 O   0  0  0  0  0  0  0  0  0  0  0  0
  143.3280  139.9190  155.4390 O   0  0  0  0  0  0  0  0  0  0  0  0
  142.6290  140.4340  155.7910 H   0  0  0  0  0  0  0  0  0  0  0  0
  144.8460  137.5920  147.8090 C   0  0  0  0  0  2  0  0  0  0  0  0
  145.7200  138.8280  147.7830 C   0  0  0  0  0  0  0  0  0  0  0  0
  146.3390  139.1600  146.7750 O   0  0  0  0  0  0  0  0  0  0  0  0
  145.7680  139.6370  149.0340 C   0  0  0  0  0  3  0  0  0  0  0  0
  146.7180  139.4180  149.9550 C   0  0  0  0  0  3  0  0  0  0  0  0
  146.8390  140.1760  151.2090 C   0  0  0  0  0  0  0  0  0  0  0  0
  146.1160  141.3540  151.4490 C   0  0  0  0  0  3  0  0  0  0  0  0
  146.2420  142.0380  152.6630 C   0  0  0  0  0  3  0  0  0  0  0  0
  147.0840  141.5320  153.6460 C   0  0  0  0  0  0  0  0  0  0  0  0
  147.7940  140.3570  153.4380 C   0  0  0  0  0  3  0  0  0  0  0  0
  147.6670  139.6770  152.2240 C   0  0  0  0  0  3  0  0  0  0  0  0
  147.2360  142.1660  154.8440 O   0  0  0  0  0  0  0  0  0  0  0  0
  147.9210  141.9040  155.4280 H   0  0  0  0  0  0  0  0  0  0  0  0
  1  2  1  0  0  0  0
  2  3  1  0  0  0  0
  3  6  1  0  0  0  0
  4  9  1  0  0  0  0
  4 11  1  0  0  0  0
  5  4  2  0  0  0  0
  6  7  2  0  0  0  0
  6  5  1  0  0  0  0
  7  8  1  0  0  0  0
  8  9  2  0  0  0  0
  9 12  1  0  0  0  0
 11 10  1  0  0  0  0
 12 13  1  0  0  0  0
 14  1  1  0  0  0  0
 15 14  1  0  0  0  0
 15 17  1  0  0  0  0
 16 15  2  0  0  0  0
 17 18  2  0  0  0  0
 18 19  1  0  0  0  0
 19 20  2  0  0  0  0
 19 24  1  0  0  0  0
 20 21  1  0  0  0  0
 21 22  2  0  0  0  0
 22 25  1  0  0  0  0
 23 22  1  0  0  0  0
 24 23  2  0  0  0  0
 25 26  1  0  0  0  0
M  END
>  <MODEL>
8

>  <REMARK>
 VINA RESULT:    -5.966      2.003      6.055
 INTER + INTRA:         -11.036
 INTER:                  -9.070
 INTRA:                  -1.966
 UNBOUND:                -1.930
  Name = CHEMBL3342738
  11 active torsions:
  status: ('A' for Active; 'I' for Inactive)
    1  A    between atoms: C_1  and  O_2
    2  A    between atoms: O_2  and  C_3
    3  A    between atoms: C_5  and  C_6
    4  A    between atoms: C_6  and  C_7
    5  A    between atoms: C_7  and  C_8
    6  A    between atoms: C_8  and  C_9
    7  A    between atoms: C_9  and  C_10
    8  A    between atoms: C_10  and  C_12
    9  A    between atoms: C_13  and  C_14
   10  A    between atoms: C_17  and  O_18
   11  A    between atoms: C_23  and  O_24
                            x       y       z     vdW  Elec       q    Type
                         _______ _______ _______ _____ _____    ______ ____

>  <TORSDO>
F 10

>  <SCORE>
-5.966

>  <RMSD_LB>
2.003

>  <RMSD_UB>
6.055

$$$$
CHEMBL3342738
 OpenBabel10172500353D

 26 27  0  0  0  0  0  0  0  0999 V2000
  143.2380  134.5690  148.8950 C   0  0  0  0  0  2  0  0  0  0  0  0
  141.9400  135.2990  148.5490 C   0  0  0  0  0  2  0  0  0  0  0  0
  142.0410  136.7940  148.8610 C   0  0  0  0  0  2  0  0  0  0  0  0
  139.5140  137.4980  151.6400 C   0  0  0  0  0  0  0  0  0  0  0  0
  140.0650  137.1930  150.3900 C   0  0  0  0  0  3  0  0  0  0  0  0
  141.4590  137.1250  150.2140 C   0  0  0  0  0  0  0  0  0  0  0  0
  142.3000  137.3890  151.3010 C   0  0  0  0  0  3  0  0  0  0  0  0
  141.7630  137.6980  152.5510 C   0  0  0  0  0  3  0  0  0  0  0  0
  140.3790  137.7490  152.7140 C   0  0  0  0  0  0  0  0  0  0  0  0
  137.2780  137.0750  150.9300 C   0  0  0  0  0  1  0  0  0  0  0  0
  138.1730  137.5750  151.9110 O   0  0  0  0  0  0  0  0  0  0  0  0
  139.8520  138.0490  153.9420 O   0  0  0  0  0  0  0  0  0  0  0  0
  139.8410  138.9370  154.2440 H   0  0  0  0  0  0  0  0  0  0  0  0
  144.3570  134.9490  147.9310 C   0  0  0  0  0  2  0  0  0  0  0  0
  145.5920  135.3820  148.6910 C   0  0  0  0  0  0  0  0  0  0  0  0
  146.7130  135.3190  148.1920 O   0  0  0  0  0  0  0  0  0  0  0  0
  145.3750  135.9190  150.0650 C   0  0  0  0  0  3  0  0  0  0  0  0
  146.0820  136.9690  150.5090 C   0  0  0  0  0  3  0  0  0  0  0  0
  145.9220  137.5610  151.8460 C   0  0  0  0  0  0  0  0  0  0  0  0
  145.5760  138.9060  152.0370 C   0  0  0  0  0  3  0  0  0  0  0  0
  145.4140  139.4290  153.3240 C   0  0  0  0  0  3  0  0  0  0  0  0
  145.5840  138.5980  154.4250 C   0  0  0  0  0  0  0  0  0  0  0  0
  145.9080  137.2580  154.2580 C   0  0  0  0  0  3  0  0  0  0  0  0
  146.0710  136.7390  152.9710 C   0  0  0  0  0  3  0  0  0  0  0  0
  145.4350  139.0640  155.6970 O   0  0  0  0  0  0  0  0  0  0  0  0
  146.1100  139.5830  156.0880 H   0  0  0  0  0  0  0  0  0  0  0  0
  2  3  1  0  0  0  0
  2  1  1  0  0  0  0
  3  6  1  0  0  0  0
  4 11  1  0  0  0  0
  4  9  1  0  0  0  0
  5  4  2  0  0  0  0
  6  5  1  0  0  0  0
  6  7  2  0  0  0  0
  7  8  1  0  0  0  0
  8  9  2  0  0  0  0
  9 12  1  0  0  0  0
 10 11  1  0  0  0  0
 12 13  1  0  0  0  0
 14 15  1  0  0  0  0
 14  1  1  0  0  0  0
 15 17  1  0  0  0  0
 16 15  2  0  0  0  0
 17 18  2  0  0  0  0
 18 19  1  0  0  0  0
 19 20  2  0  0  0  0
 19 24  1  0  0  0  0
 20 21  1  0  0  0  0
 21 22  2  0  0  0  0
 22 25  1  0  0  0  0
 23 22  1  0  0  0  0
 24 23  2  0  0  0  0
 25 26  1  0  0  0  0
M  END
>  <MODEL>
9

>  <REMARK>
 VINA RESULT:    -5.877      3.197      6.951
 INTER + INTRA:         -10.900
 INTER:                  -8.970
 INTRA:                  -1.930
 UNBOUND:                -1.930
  Name = CHEMBL3342738
  11 active torsions:
  status: ('A' for Active; 'I' for Inactive)
    1  A    between atoms: C_1  and  O_2
    2  A    between atoms: O_2  and  C_3
    3  A    between atoms: C_5  and  C_6
    4  A    between atoms: C_6  and  C_7
    5  A    between atoms: C_7  and  C_8
    6  A    between atoms: C_8  and  C_9
    7  A    between atoms: C_9  and  C_10
    8  A    between atoms: C_10  and  C_12
    9  A    between atoms: C_13  and  C_14
   10  A    between atoms: C_17  and  O_18
   11  A    between atoms: C_23  and  O_24
                            x       y       z     vdW  Elec       q    Type
                         _______ _______ _______ _____ _____    ______ ____

>  <TORSDO>
F 10

>  <SCORE>
-5.877

>  <RMSD_LB>
3.197

>  <RMSD_UB>
6.951

$$$$
