CHEMBL1324611
 OpenBabel10172500573D

 26 27  0  0  0  0  0  0  0  0999 V2000
  134.6540  134.4670  155.2830 C   0  0  0  0  0  2  0  0  0  0  0  0
  135.5930  135.6190  158.8000 C   0  0  0  0  0  0  0  0  0  0  0  0
  135.0190  134.9080  157.7370 C   0  0  0  0  0  3  0  0  0  0  0  0
  135.3030  135.2360  156.4060 C   0  0  0  0  0  0  0  0  0  0  0  0
  136.1530  136.3090  156.1340 C   0  0  0  0  0  3  0  0  0  0  0  0
  136.7180  137.0500  157.1790 C   0  0  0  0  0  0  0  0  0  0  0  0
  136.4740  136.6840  158.5200 C   0  0  0  0  0  0  0  0  0  0  0  0
  133.8890  135.4960  160.4690 C   0  0  0  0  0  1  0  0  0  0  0  0
  135.2600  135.3800  160.1090 O   0  0  0  0  0  0  0  0  0  0  0  0
  137.5580  138.1160  156.9570 O   0  0  0  0  0  0  0  0  0  0  0  0
  138.7880  137.7960  156.3130 C   0  0  0  0  0  1  0  0  0  0  0  0
  137.0840  137.4740  159.4680 O   0  0  0  0  0  0  0  0  0  0  0  0
  136.2900  138.5120  160.0320 C   0  0  0  0  0  1  0  0  0  0  0  0
  134.3140  135.3660  154.0990 C   0  0  0  0  0  2  0  0  0  0  0  0
  134.3770  134.5800  152.8100 C   0  0  0  0  0  0  0  0  0  0  0  0
  135.4150  134.0920  152.3780 O   0  0  0  0  0  0  0  0  0  0  0  0
  133.1600  134.4360  152.1800 N   0  0  0  0  0  0  0  0  0  0  0  0
  132.3500  134.7890  152.6140 H   0  0  0  0  0  0  0  0  0  0  0  0
  133.0430  133.7810  150.9020 C   0  0  0  0  0  2  0  0  0  0  0  0
  132.9520  134.7750  149.7760 C   0  0  0  0  0  0  0  0  0  0  0  0
  132.7790  136.1430  150.0360 C   0  0  0  0  0  3  0  0  0  0  0  0
  132.7490  137.0640  148.9850 C   0  0  0  0  0  3  0  0  0  0  0  0
  132.8810  136.6190  147.6710 C   0  0  0  0  0  0  0  0  0  0  0  0
  132.8820  137.7590  146.3810 Cl  0  0  0  0  0  0  0  0  0  0  0  0
  133.0220  135.2620  147.3950 C   0  0  0  0  0  3  0  0  0  0  0  0
  133.0490  134.3410  148.4450 C   0  0  0  0  0  3  0  0  0  0  0  0
  1  4  1  0  0  0  0
  2  9  1  0  0  0  0
  3  2  2  0  0  0  0
  4  3  1  0  0  0  0
  5  4  2  0  0  0  0
  5  6  1  0  0  0  0
  6  7  2  0  0  0  0
  7  2  1  0  0  0  0
  7 12  1  0  0  0  0
  9  8  1  0  0  0  0
 10  6  1  0  0  0  0
 11 10  1  0  0  0  0
 12 13  1  0  0  0  0
 14  1  1  0  0  0  0
 15 14  1  0  0  0  0
 16 15  2  0  0  0  0
 17 18  1  0  0  0  0
 17 15  1  0  0  0  0
 19 17  1  0  0  0  0
 20 21  1  0  0  0  0
 20 19  1  0  0  0  0
 22 21  2  0  0  0  0
 23 22  1  0  0  0  0
 24 23  1  0  0  0  0
 25 23  2  0  0  0  0
 25 26  1  0  0  0  0
 26 20  2  0  0  0  0
M  END
>  <MODEL>
1

>  <REMARK>
 VINA RESULT:    -7.137      0.000      0.000
 INTER + INTRA:         -11.676
 INTER:                 -11.133
 INTRA:                  -0.542
 UNBOUND:                -1.201
  Name = CHEMBL1324611
  11 active torsions:
  status: ('A' for Active; 'I' for Inactive)
    1  A    between atoms: C_1  and  O_2
    2  A    between atoms: O_2  and  C_3
    3  A    between atoms: C_5  and  C_6
    4  A    between atoms: C_6  and  C_7
    5  A    between atoms: C_7  and  C_8
    6  A    between atoms: N_10  and  C_11
    7  A    between atoms: C_11  and  C_12
    8  A    between atoms: C_20  and  O_21
    9  A    between atoms: O_21  and  C_22
   10  A    between atoms: C_23  and  O_24
   11  A    between atoms: O_24  and  C_25
                            x       y       z     vdW  Elec       q    Type
                         _______ _______ _______ _____ _____    ______ ____

>  <TORSDO>
F 8

>  <SCORE>
-7.137

>  <RMSD_LB>
0.000

>  <RMSD_UB>
0.000

$$$$
CHEMBL1324611
 OpenBabel10172500573D

 26 27  0  0  0  0  0  0  0  0999 V2000
  139.4140  138.3520  153.0980 C   0  0  0  0  0  2  0  0  0  0  0  0
  143.1980  137.9660  153.4320 C   0  0  0  0  0  0  0  0  0  0  0  0
  141.8590  138.2850  153.7010 C   0  0  0  0  0  3  0  0  0  0  0  0
  140.8420  137.9800  152.7890 C   0  0  0  0  0  0  0  0  0  0  0  0
  141.1720  137.3720  151.5770 C   0  0  0  0  0  3  0  0  0  0  0  0
  142.5040  137.0680  151.2750 C   0  0  0  0  0  0  0  0  0  0  0  0
  143.5210  137.3270  152.2180 C   0  0  0  0  0  0  0  0  0  0  0  0
  144.1380  139.6150  154.8800 C   0  0  0  0  0  1  0  0  0  0  0  0
  144.2230  138.3370  154.2630 O   0  0  0  0  0  0  0  0  0  0  0  0
  142.8750  136.4720  150.0920 O   0  0  0  0  0  0  0  0  0  0  0  0
  142.4370  137.1400  148.9120 C   0  0  0  0  0  1  0  0  0  0  0  0
  144.7950  136.9830  151.8220 O   0  0  0  0  0  0  0  0  0  0  0  0
  145.5860  138.0240  151.2620 C   0  0  0  0  0  1  0  0  0  0  0  0
  139.1880  138.5480  154.5940 C   0  0  0  0  0  2  0  0  0  0  0  0
  137.7710  138.1750  154.9630 C   0  0  0  0  0  0  0  0  0  0  0  0
  136.9530  138.9920  155.3720 O   0  0  0  0  0  0  0  0  0  0  0  0
  137.4710  136.8440  154.7700 N   0  0  0  0  0  0  0  0  0  0  0  0
  138.1500  136.2530  154.3700 H   0  0  0  0  0  0  0  0  0  0  0  0
  136.1910  136.2970  155.1390 C   0  0  0  0  0  2  0  0  0  0  0  0
  135.5880  135.4920  154.0190 C   0  0  0  0  0  0  0  0  0  0  0  0
  134.7980  134.3650  154.2870 C   0  0  0  0  0  3  0  0  0  0  0  0
  134.1990  133.6580  153.2410 C   0  0  0  0  0  3  0  0  0  0  0  0
  134.3970  134.0680  151.9240 C   0  0  0  0  0  0  0  0  0  0  0  0
  133.6280  133.2180  150.6400 Cl  0  0  0  0  0  0  0  0  0  0  0  0
  135.2050  135.1660  151.6400 C   0  0  0  0  0  3  0  0  0  0  0  0
  135.8050  135.8720  152.6850 C   0  0  0  0  0  3  0  0  0  0  0  0
  1 14  1  0  0  0  0
  2  3  1  0  0  0  0
  2  9  1  0  0  0  0
  4  1  1  0  0  0  0
  4  3  2  0  0  0  0
  5  4  1  0  0  0  0
  6  5  2  0  0  0  0
  6  7  1  0  0  0  0
  7  2  2  0  0  0  0
  9  8  1  0  0  0  0
 10  6  1  0  0  0  0
 11 10  1  0  0  0  0
 12  7  1  0  0  0  0
 13 12  1  0  0  0  0
 14 15  1  0  0  0  0
 15 16  2  0  0  0  0
 17 15  1  0  0  0  0
 17 19  1  0  0  0  0
 18 17  1  0  0  0  0
 20 21  1  0  0  0  0
 20 19  1  0  0  0  0
 22 21  2  0  0  0  0
 23 22  1  0  0  0  0
 24 23  1  0  0  0  0
 25 23  2  0  0  0  0
 25 26  1  0  0  0  0
 26 20  2  0  0  0  0
M  END
>  <MODEL>
2

>  <REMARK>
 VINA RESULT:    -6.640      5.078      7.833
 INTER + INTRA:         -10.946
 INTER:                 -10.238
 INTRA:                  -0.708
 UNBOUND:                -1.201
  Name = CHEMBL1324611
  11 active torsions:
  status: ('A' for Active; 'I' for Inactive)
    1  A    between atoms: C_1  and  O_2
    2  A    between atoms: O_2  and  C_3
    3  A    between atoms: C_5  and  C_6
    4  A    between atoms: C_6  and  C_7
    5  A    between atoms: C_7  and  C_8
    6  A    between atoms: N_10  and  C_11
    7  A    between atoms: C_11  and  C_12
    8  A    between atoms: C_20  and  O_21
    9  A    between atoms: O_21  and  C_22
   10  A    between atoms: C_23  and  O_24
   11  A    between atoms: O_24  and  C_25
                            x       y       z     vdW  Elec       q    Type
                         _______ _______ _______ _____ _____    ______ ____

>  <TORSDO>
F 8

>  <SCORE>
-6.640

>  <RMSD_LB>
5.078

>  <RMSD_UB>
7.833

$$$$
CHEMBL1324611
 OpenBabel10172500573D

 26 27  0  0  0  0  0  0  0  0999 V2000
  138.1510  136.5290  150.1900 C   0  0  0  0  0  2  0  0  0  0  0  0
  134.6860  136.1410  148.6330 C   0  0  0  0  0  0  0  0  0  0  0  0
  135.9990  136.5670  148.8800 C   0  0  0  0  0  3  0  0  0  0  0  0
  136.7490  136.0370  149.9370 C   0  0  0  0  0  0  0  0  0  0  0  0
  136.1660  135.0870  150.7770 C   0  0  0  0  0  3  0  0  0  0  0  0
  134.8480  134.6660  150.5660 C   0  0  0  0  0  0  0  0  0  0  0  0
  134.1140  135.1600  149.4680 C   0  0  0  0  0  0  0  0  0  0  0  0
  134.5540  137.4070  146.6130 C   0  0  0  0  0  1  0  0  0  0  0  0
  133.8990  136.7090  147.6650 O   0  0  0  0  0  0  0  0  0  0  0  0
  134.2340  133.7340  151.3700 O   0  0  0  0  0  0  0  0  0  0  0  0
  134.2940  134.0040  152.7680 C   0  0  0  0  0  1  0  0  0  0  0  0
  132.8300  134.6750  149.3490 O   0  0  0  0  0  0  0  0  0  0  0  0
  132.6270  133.6560  148.3770 C   0  0  0  0  0  1  0  0  0  0  0  0
  138.1820  138.0230  150.4980 C   0  0  0  0  0  2  0  0  0  0  0  0
  138.8380  138.2680  151.8370 C   0  0  0  0  0  0  0  0  0  0  0  0
  139.9180  138.8360  151.9550 O   0  0  0  0  0  0  0  0  0  0  0  0
  138.1010  137.8260  152.9140 N   0  0  0  0  0  0  0  0  0  0  0  0
  137.2070  137.4430  152.7580 H   0  0  0  0  0  0  0  0  0  0  0  0
  138.6050  137.9090  154.2600 C   0  0  0  0  0  2  0  0  0  0  0  0
  137.7240  137.1640  155.2290 C   0  0  0  0  0  0  0  0  0  0  0  0
  136.6380  136.4030  154.7730 C   0  0  0  0  0  3  0  0  0  0  0  0
  135.8600  135.6730  155.6760 C   0  0  0  0  0  3  0  0  0  0  0  0
  136.1580  135.7110  157.0370 C   0  0  0  0  0  0  0  0  0  0  0  0
  135.2220  134.7810  158.1420 Cl  0  0  0  0  0  0  0  0  0  0  0  0
  137.2140  136.4870  157.5070 C   0  0  0  0  0  3  0  0  0  0  0  0
  137.9910  137.2190  156.6050 C   0  0  0  0  0  3  0  0  0  0  0  0
  1 14  1  0  0  0  0
  2  3  2  0  0  0  0
  2  7  1  0  0  0  0
  3  4  1  0  0  0  0
  4  1  1  0  0  0  0
  4  5  2  0  0  0  0
  6  5  1  0  0  0  0
  6 10  1  0  0  0  0
  7  6  2  0  0  0  0
  8  9  1  0  0  0  0
  9  2  1  0  0  0  0
 10 11  1  0  0  0  0
 12  7  1  0  0  0  0
 13 12  1  0  0  0  0
 14 15  1  0  0  0  0
 15 16  2  0  0  0  0
 15 17  1  0  0  0  0
 17 19  1  0  0  0  0
 18 17  1  0  0  0  0
 19 20  1  0  0  0  0
 20 26  1  0  0  0  0
 21 20  2  0  0  0  0
 21 22  1  0  0  0  0
 22 23  2  0  0  0  0
 23 25  1  0  0  0  0
 23 24  1  0  0  0  0
 26 25  2  0  0  0  0
M  END
>  <MODEL>
3

>  <REMARK>
 VINA RESULT:    -6.311      4.185      9.041
 INTER + INTRA:         -10.463
 INTER:                  -9.521
 INTRA:                  -0.941
 UNBOUND:                -1.201
  Name = CHEMBL1324611
  11 active torsions:
  status: ('A' for Active; 'I' for Inactive)
    1  A    between atoms: C_1  and  O_2
    2  A    between atoms: O_2  and  C_3
    3  A    between atoms: C_5  and  C_6
    4  A    between atoms: C_6  and  C_7
    5  A    between atoms: C_7  and  C_8
    6  A    between atoms: N_10  and  C_11
    7  A    between atoms: C_11  and  C_12
    8  A    between atoms: C_20  and  O_21
    9  A    between atoms: O_21  and  C_22
   10  A    between atoms: C_23  and  O_24
   11  A    between atoms: O_24  and  C_25
                            x       y       z     vdW  Elec       q    Type
                         _______ _______ _______ _____ _____    ______ ____

>  <TORSDO>
F 8

>  <SCORE>
-6.311

>  <RMSD_LB>
4.185

>  <RMSD_UB>
9.041

$$$$
CHEMBL1324611
 OpenBabel10172500573D

 26 27  0  0  0  0  0  0  0  0999 V2000
  139.6350  137.2430  150.5560 C   0  0  0  0  0  2  0  0  0  0  0  0
  143.4040  137.4580  151.1270 C   0  0  0  0  0  0  0  0  0  0  0  0
  142.1530  137.2960  150.5140 C   0  0  0  0  0  3  0  0  0  0  0  0
  140.9640  137.4430  151.2390 C   0  0  0  0  0  0  0  0  0  0  0  0
  141.0280  137.7310  152.6030 C   0  0  0  0  0  3  0  0  0  0  0  0
  142.2650  137.8720  153.2420 C   0  0  0  0  0  0  0  0  0  0  0  0
  143.4610  137.7770  152.4990 C   0  0  0  0  0  0  0  0  0  0  0  0
  144.8970  135.8810  150.1360 C   0  0  0  0  0  1  0  0  0  0  0  0
  144.5820  137.2280  150.4650 O   0  0  0  0  0  0  0  0  0  0  0  0
  142.3740  138.1510  154.5840 O   0  0  0  0  0  0  0  0  0  0  0  0
  141.9060  139.4390  154.9760 C   0  0  0  0  0  1  0  0  0  0  0  0
  144.6210  137.9380  153.2240 O   0  0  0  0  0  0  0  0  0  0  0  0
  145.1810  136.7610  153.7920 C   0  0  0  0  0  1  0  0  0  0  0  0
  138.4910  137.8740  151.3440 C   0  0  0  0  0  2  0  0  0  0  0  0
  137.4580  136.8280  151.6960 C   0  0  0  0  0  0  0  0  0  0  0  0
  137.0120  136.0310  150.8780 O   0  0  0  0  0  0  0  0  0  0  0  0
  137.0850  136.8300  153.0220 N   0  0  0  0  0  0  0  0  0  0  0  0
  137.5330  137.4470  153.6460 H   0  0  0  0  0  0  0  0  0  0  0  0
  136.0570  135.9520  153.5200 C   0  0  0  0  0  2  0  0  0  0  0  0
  136.1840  135.7350  155.0040 C   0  0  0  0  0  0  0  0  0  0  0  0
  137.3580  136.0900  155.6850 C   0  0  0  0  0  3  0  0  0  0  0  0
  137.4450  135.9340  157.0710 C   0  0  0  0  0  3  0  0  0  0  0  0
  136.3650  135.4110  157.7790 C   0  0  0  0  0  0  0  0  0  0  0  0
  136.4600  135.2550  159.4900 Cl  0  0  0  0  0  0  0  0  0  0  0  0
  135.2040  135.0250  157.1130 C   0  0  0  0  0  3  0  0  0  0  0  0
  135.1180  135.1790  155.7270 C   0  0  0  0  0  3  0  0  0  0  0  0
  1  4  1  0  0  0  0
  1 14  1  0  0  0  0
  2  7  1  0  0  0  0
  3  2  2  0  0  0  0
  3  4  1  0  0  0  0
  4  5  2  0  0  0  0
  5  6  1  0  0  0  0
  6 10  1  0  0  0  0
  7 12  1  0  0  0  0
  7  6  2  0  0  0  0
  8  9  1  0  0  0  0
  9  2  1  0  0  0  0
 10 11  1  0  0  0  0
 12 13  1  0  0  0  0
 14 15  1  0  0  0  0
 15 17  1  0  0  0  0
 16 15  2  0  0  0  0
 17 19  1  0  0  0  0
 17 18  1  0  0  0  0
 19 20  1  0  0  0  0
 20 21  2  0  0  0  0
 20 26  1  0  0  0  0
 21 22  1  0  0  0  0
 22 23  2  0  0  0  0
 23 24  1  0  0  0  0
 25 23  1  0  0  0  0
 26 25  2  0  0  0  0
M  END
>  <MODEL>
4

>  <REMARK>
 VINA RESULT:    -6.300      5.779      8.800
 INTER + INTRA:         -10.446
 INTER:                  -9.760
 INTRA:                  -0.686
 UNBOUND:                -1.201
  Name = CHEMBL1324611
  11 active torsions:
  status: ('A' for Active; 'I' for Inactive)
    1  A    between atoms: C_1  and  O_2
    2  A    between atoms: O_2  and  C_3
    3  A    between atoms: C_5  and  C_6
    4  A    between atoms: C_6  and  C_7
    5  A    between atoms: C_7  and  C_8
    6  A    between atoms: N_10  and  C_11
    7  A    between atoms: C_11  and  C_12
    8  A    between atoms: C_20  and  O_21
    9  A    between atoms: O_21  and  C_22
   10  A    between atoms: C_23  and  O_24
   11  A    between atoms: O_24  and  C_25
                            x       y       z     vdW  Elec       q    Type
                         _______ _______ _______ _____ _____    ______ ____

>  <TORSDO>
F 8

>  <SCORE>
-6.300

>  <RMSD_LB>
5.779

>  <RMSD_UB>
8.800

$$$$
CHEMBL1324611
 OpenBabel10172500573D

 26 27  0  0  0  0  0  0  0  0999 V2000
  142.4190  137.1290  150.5760 C   0  0  0  0  0  2  0  0  0  0  0  0
  140.3580  138.3380  153.5540 C   0  0  0  0  0  0  0  0  0  0  0  0
  141.4380  138.0100  152.7230 C   0  0  0  0  0  3  0  0  0  0  0  0
  141.2370  137.4910  151.4380 C   0  0  0  0  0  0  0  0  0  0  0  0
  139.9340  137.2720  150.9880 C   0  0  0  0  0  3  0  0  0  0  0  0
  138.8400  137.5670  151.8090 C   0  0  0  0  0  0  0  0  0  0  0  0
  139.0440  138.1410  153.0820 C   0  0  0  0  0  0  0  0  0  0  0  0
  141.1860  137.8740  155.7440 C   0  0  0  0  0  1  0  0  0  0  0  0
  140.5260  138.7580  154.8480 O   0  0  0  0  0  0  0  0  0  0  0  0
  137.5400  137.3640  151.4080 O   0  0  0  0  0  0  0  0  0  0  0  0
  137.3140  136.1700  150.6650 C   0  0  0  0  0  1  0  0  0  0  0  0
  137.8990  138.3980  153.8040 O   0  0  0  0  0  0  0  0  0  0  0  0
  137.4780  137.3820  154.7060 C   0  0  0  0  0  1  0  0  0  0  0  0
  142.3710  137.8290  149.2220 C   0  0  0  0  0  2  0  0  0  0  0  0
  142.8140  139.2680  149.3610 C   0  0  0  0  0  0  0  0  0  0  0  0
  142.0240  140.2030  149.4290 O   0  0  0  0  0  0  0  0  0  0  0  0
  144.1800  139.4310  149.4340 N   0  0  0  0  0  0  0  0  0  0  0  0
  144.7590  138.6340  149.4470 H   0  0  0  0  0  0  0  0  0  0  0  0
  144.7830  140.7380  149.4930 C   0  0  0  0  0  2  0  0  0  0  0  0
  145.5670  140.9310  150.7630 C   0  0  0  0  0  0  0  0  0  0  0  0
  146.4300  139.9300  151.2340 C   0  0  0  0  0  3  0  0  0  0  0  0
  147.1940  140.1410  152.3850 C   0  0  0  0  0  3  0  0  0  0  0  0
  147.0890  141.3480  153.0750 C   0  0  0  0  0  0  0  0  0  0  0  0
  148.0590  141.6200  154.4710 Cl  0  0  0  0  0  0  0  0  0  0  0  0
  146.2130  142.3380  152.6380 C   0  0  0  0  0  3  0  0  0  0  0  0
  145.4480  142.1260  151.4880 C   0  0  0  0  0  3  0  0  0  0  0  0
  1  4  1  0  0  0  0
  2  9  1  0  0  0  0
  3  2  2  0  0  0  0
  4  3  1  0  0  0  0
  5  4  2  0  0  0  0
  5  6  1  0  0  0  0
  6  7  2  0  0  0  0
  7  2  1  0  0  0  0
  7 12  1  0  0  0  0
  9  8  1  0  0  0  0
 10  6  1  0  0  0  0
 11 10  1  0  0  0  0
 12 13  1  0  0  0  0
 14 15  1  0  0  0  0
 14  1  1  0  0  0  0
 15 16  2  0  0  0  0
 15 17  1  0  0  0  0
 17 18  1  0  0  0  0
 17 19  1  0  0  0  0
 19 20  1  0  0  0  0
 20 21  2  0  0  0  0
 20 26  1  0  0  0  0
 21 22  1  0  0  0  0
 22 23  2  0  0  0  0
 23 24  1  0  0  0  0
 25 23  1  0  0  0  0
 26 25  2  0  0  0  0
M  END
>  <MODEL>
5

>  <REMARK>
 VINA RESULT:    -6.219      7.836     10.924
 INTER + INTRA:         -10.328
 INTER:                  -9.441
 INTRA:                  -0.886
 UNBOUND:                -1.201
  Name = CHEMBL1324611
  11 active torsions:
  status: ('A' for Active; 'I' for Inactive)
    1  A    between atoms: C_1  and  O_2
    2  A    between atoms: O_2  and  C_3
    3  A    between atoms: C_5  and  C_6
    4  A    between atoms: C_6  and  C_7
    5  A    between atoms: C_7  and  C_8
    6  A    between atoms: N_10  and  C_11
    7  A    between atoms: C_11  and  C_12
    8  A    between atoms: C_20  and  O_21
    9  A    between atoms: O_21  and  C_22
   10  A    between atoms: C_23  and  O_24
   11  A    between atoms: O_24  and  C_25
                            x       y       z     vdW  Elec       q    Type
                         _______ _______ _______ _____ _____    ______ ____

>  <TORSDO>
F 8

>  <SCORE>
-6.219

>  <RMSD_LB>
7.836

>  <RMSD_UB>
10.924

$$$$
CHEMBL1324611
 OpenBabel10172500573D

 26 27  0  0  0  0  0  0  0  0999 V2000
  136.9470  136.7080  151.4640 C   0  0  0  0  0  2  0  0  0  0  0  0
  134.5770  134.9230  149.0610 C   0  0  0  0  0  0  0  0  0  0  0  0
  135.0720  135.6730  150.1380 C   0  0  0  0  0  3  0  0  0  0  0  0
  136.4430  135.9150  150.2850 C   0  0  0  0  0  0  0  0  0  0  0  0
  137.3350  135.3760  149.3560 C   0  0  0  0  0  3  0  0  0  0  0  0
  136.8660  134.6030  148.2880 C   0  0  0  0  0  0  0  0  0  0  0  0
  135.4810  134.4060  148.1110 C   0  0  0  0  0  0  0  0  0  0  0  0
  132.6880  133.7730  149.9610 C   0  0  0  0  0  1  0  0  0  0  0  0
  133.2520  134.5920  148.9440 O   0  0  0  0  0  0  0  0  0  0  0  0
  137.7090  134.0510  147.3520 O   0  0  0  0  0  0  0  0  0  0  0  0
  138.5170  134.9820  146.6380 C   0  0  0  0  0  1  0  0  0  0  0  0
  135.1280  133.6360  147.0240 O   0  0  0  0  0  0  0  0  0  0  0  0
  134.6300  134.3340  145.8890 C   0  0  0  0  0  1  0  0  0  0  0  0
  138.3080  137.3390  151.1860 C   0  0  0  0  0  2  0  0  0  0  0  0
  138.9740  137.7420  152.4810 C   0  0  0  0  0  0  0  0  0  0  0  0
  140.1910  137.7470  152.6300 O   0  0  0  0  0  0  0  0  0  0  0  0
  138.0950  138.1310  153.4680 N   0  0  0  0  0  0  0  0  0  0  0  0
  137.1320  138.1750  153.2630 H   0  0  0  0  0  0  0  0  0  0  0  0
  138.5480  138.4760  154.7910 C   0  0  0  0  0  2  0  0  0  0  0  0
  137.8670  137.6440  155.8440 C   0  0  0  0  0  0  0  0  0  0  0  0
  136.9600  136.6350  155.4890 C   0  0  0  0  0  3  0  0  0  0  0  0
  136.3750  135.8330  156.4720 C   0  0  0  0  0  3  0  0  0  0  0  0
  136.6860  136.0440  157.8140 C   0  0  0  0  0  0  0  0  0  0  0  0
  135.9940  135.0300  159.0200 Cl  0  0  0  0  0  0  0  0  0  0  0  0
  137.5610  137.0620  158.1850 C   0  0  0  0  0  3  0  0  0  0  0  0
  138.1440  137.8660  157.2020 C   0  0  0  0  0  3  0  0  0  0  0  0
  2  3  1  0  0  0  0
  3  4  2  0  0  0  0
  4  1  1  0  0  0  0
  5  4  1  0  0  0  0
  6  5  2  0  0  0  0
  7  6  1  0  0  0  0
  7  2  2  0  0  0  0
  9  2  1  0  0  0  0
  9  8  1  0  0  0  0
 10  6  1  0  0  0  0
 11 10  1  0  0  0  0
 12  7  1  0  0  0  0
 13 12  1  0  0  0  0
 14  1  1  0  0  0  0
 14 15  1  0  0  0  0
 15 16  2  0  0  0  0
 15 17  1  0  0  0  0
 17 19  1  0  0  0  0
 18 17  1  0  0  0  0
 19 20  1  0  0  0  0
 20 26  1  0  0  0  0
 21 20  2  0  0  0  0
 21 22  1  0  0  0  0
 22 23  2  0  0  0  0
 23 25  1  0  0  0  0
 23 24  1  0  0  0  0
 26 25  2  0  0  0  0
M  END
>  <MODEL>
6

>  <REMARK>
 VINA RESULT:    -6.109      4.436      9.497
 INTER + INTRA:         -10.167
 INTER:                  -9.361
 INTRA:                  -0.806
 UNBOUND:                -1.201
  Name = CHEMBL1324611
  11 active torsions:
  status: ('A' for Active; 'I' for Inactive)
    1  A    between atoms: C_1  and  O_2
    2  A    between atoms: O_2  and  C_3
    3  A    between atoms: C_5  and  C_6
    4  A    between atoms: C_6  and  C_7
    5  A    between atoms: C_7  and  C_8
    6  A    between atoms: N_10  and  C_11
    7  A    between atoms: C_11  and  C_12
    8  A    between atoms: C_20  and  O_21
    9  A    between atoms: O_21  and  C_22
   10  A    between atoms: C_23  and  O_24
   11  A    between atoms: O_24  and  C_25
                            x       y       z     vdW  Elec       q    Type
                         _______ _______ _______ _____ _____    ______ ____

>  <TORSDO>
F 8

>  <SCORE>
-6.109

>  <RMSD_LB>
4.436

>  <RMSD_UB>
9.497

$$$$
CHEMBL1324611
 OpenBabel10172500573D

 26 27  0  0  0  0  0  0  0  0999 V2000
  139.8530  137.7210  151.2640 C   0  0  0  0  0  2  0  0  0  0  0  0
  136.3090  136.4910  151.9780 C   0  0  0  0  0  0  0  0  0  0  0  0
  137.5840  137.0530  152.1330 C   0  0  0  0  0  3  0  0  0  0  0  0
  138.4810  137.1290  151.0610 C   0  0  0  0  0  0  0  0  0  0  0  0
  138.1060  136.6100  149.8200 C   0  0  0  0  0  3  0  0  0  0  0  0
  136.8490  136.0210  149.6480 C   0  0  0  0  0  0  0  0  0  0  0  0
  135.9260  135.9940  150.7150 C   0  0  0  0  0  0  0  0  0  0  0  0
  135.9420  135.6360  154.1770 C   0  0  0  0  0  1  0  0  0  0  0  0
  135.4490  136.3180  153.0310 O   0  0  0  0  0  0  0  0  0  0  0  0
  136.4390  135.4950  148.4450 O   0  0  0  0  0  0  0  0  0  0  0  0
  137.2340  134.4210  147.9500 C   0  0  0  0  0  1  0  0  0  0  0  0
  134.7160  135.3980  150.4350 O   0  0  0  0  0  0  0  0  0  0  0  0
  134.5950  134.0230  150.7780 C   0  0  0  0  0  1  0  0  0  0  0  0
  139.8880  139.2060  150.9170 C   0  0  0  0  0  2  0  0  0  0  0  0
  141.1220  139.5250  150.1050 C   0  0  0  0  0  0  0  0  0  0  0  0
  141.1770  139.3680  148.8900 O   0  0  0  0  0  0  0  0  0  0  0  0
  142.1660  140.0360  150.8440 N   0  0  0  0  0  0  0  0  0  0  0  0
  142.0350  140.2070  151.8050 H   0  0  0  0  0  0  0  0  0  0  0  0
  143.4440  140.3270  150.2470 C   0  0  0  0  0  2  0  0  0  0  0  0
  144.4530  140.7570  151.2790 C   0  0  0  0  0  0  0  0  0  0  0  0
  144.7170  139.9610  152.4020 C   0  0  0  0  0  3  0  0  0  0  0  0
  145.6940  140.3440  153.3260 C   0  0  0  0  0  3  0  0  0  0  0  0
  146.4010  141.5300  153.1340 C   0  0  0  0  0  0  0  0  0  0  0  0
  147.6290  141.9810  154.2520 Cl  0  0  0  0  0  0  0  0  0  0  0  0
  146.1280  142.3470  152.0400 C   0  0  0  0  0  3  0  0  0  0  0  0
  145.1500  141.9650  151.1180 C   0  0  0  0  0  3  0  0  0  0  0  0
  2  3  1  0  0  0  0
  2  9  1  0  0  0  0
  4  1  1  0  0  0  0
  4  3  2  0  0  0  0
  5  4  1  0  0  0  0
  6  5  2  0  0  0  0
  6  7  1  0  0  0  0
  7  2  2  0  0  0  0
  9  8  1  0  0  0  0
 10  6  1  0  0  0  0
 11 10  1  0  0  0  0
 12  7  1  0  0  0  0
 12 13  1  0  0  0  0
 14  1  1  0  0  0  0
 15 17  1  0  0  0  0
 15 14  1  0  0  0  0
 16 15  2  0  0  0  0
 17 18  1  0  0  0  0
 19 17  1  0  0  0  0
 19 20  1  0  0  0  0
 20 21  1  0  0  0  0
 21 22  2  0  0  0  0
 23 22  1  0  0  0  0
 23 24  1  0  0  0  0
 25 23  2  0  0  0  0
 26 20  2  0  0  0  0
 26 25  1  0  0  0  0
M  END
>  <MODEL>
7

>  <REMARK>
 VINA RESULT:    -6.052      7.089     10.584
 INTER + INTRA:         -10.083
 INTER:                  -9.567
 INTRA:                  -0.516
 UNBOUND:                -1.201
  Name = CHEMBL1324611
  11 active torsions:
  status: ('A' for Active; 'I' for Inactive)
    1  A    between atoms: C_1  and  O_2
    2  A    between atoms: O_2  and  C_3
    3  A    between atoms: C_5  and  C_6
    4  A    between atoms: C_6  and  C_7
    5  A    between atoms: C_7  and  C_8
    6  A    between atoms: N_10  and  C_11
    7  A    between atoms: C_11  and  C_12
    8  A    between atoms: C_20  and  O_21
    9  A    between atoms: O_21  and  C_22
   10  A    between atoms: C_23  and  O_24
   11  A    between atoms: O_24  and  C_25
                            x       y       z     vdW  Elec       q    Type
                         _______ _______ _______ _____ _____    ______ ____

>  <TORSDO>
F 8

>  <SCORE>
-6.052

>  <RMSD_LB>
7.089

>  <RMSD_UB>
10.584

$$$$
CHEMBL1324611
 OpenBabel10172500573D

 26 27  0  0  0  0  0  0  0  0999 V2000
  136.7280  134.8500  144.0640 C   0  0  0  0  0  2  0  0  0  0  0  0
  134.9910  137.8990  142.5580 C   0  0  0  0  0  0  0  0  0  0  0  0
  135.9000  136.8560  142.7820 C   0  0  0  0  0  3  0  0  0  0  0  0
  135.7220  135.9500  143.8360 C   0  0  0  0  0  0  0  0  0  0  0  0
  134.6330  136.1080  144.6940 C   0  0  0  0  0  3  0  0  0  0  0  0
  133.7270  137.1580  144.5060 C   0  0  0  0  0  0  0  0  0  0  0  0
  133.8780  138.0360  143.4120 C   0  0  0  0  0  0  0  0  0  0  0  0
  135.4340  138.4050  140.2670 C   0  0  0  0  0  1  0  0  0  0  0  0
  135.1910  138.8540  141.5950 O   0  0  0  0  0  0  0  0  0  0  0  0
  132.6430  137.3530  145.3290 O   0  0  0  0  0  0  0  0  0  0  0  0
  132.9190  137.2770  146.7250 C   0  0  0  0  0  1  0  0  0  0  0  0
  132.9270  139.0290  143.3170 O   0  0  0  0  0  0  0  0  0  0  0  0
  131.9480  138.8700  142.2970 C   0  0  0  0  0  1  0  0  0  0  0  0
  136.2680  133.5260  143.4610 C   0  0  0  0  0  2  0  0  0  0  0  0
  135.6880  132.6350  144.5360 C   0  0  0  0  0  0  0  0  0  0  0  0
  134.8150  131.8040  144.3110 O   0  0  0  0  0  0  0  0  0  0  0  0
  136.2480  132.8180  145.7810 N   0  0  0  0  0  0  0  0  0  0  0  0
  136.9970  133.4510  145.8820 H   0  0  0  0  0  0  0  0  0  0  0  0
  135.7670  132.1090  146.9380 C   0  0  0  0  0  2  0  0  0  0  0  0
  135.0300  133.0220  147.8810 C   0  0  0  0  0  0  0  0  0  0  0  0
  135.4650  134.3370  148.0970 C   0  0  0  0  0  3  0  0  0  0  0  0
  134.7430  135.1930  148.9330 C   0  0  0  0  0  3  0  0  0  0  0  0
  133.5880  134.7330  149.5640 C   0  0  0  0  0  0  0  0  0  0  0  0
  132.6790  135.7990  150.5630 Cl  0  0  0  0  0  0  0  0  0  0  0  0
  133.1600  133.4200  149.3840 C   0  0  0  0  0  3  0  0  0  0  0  0
  133.8840  132.5640  148.5510 C   0  0  0  0  0  3  0  0  0  0  0  0
  2  3  2  0  0  0  0
  2  7  1  0  0  0  0
  3  4  1  0  0  0  0
  4  1  1  0  0  0  0
  4  5  2  0  0  0  0
  6  5  1  0  0  0  0
  6 10  1  0  0  0  0
  7  6  2  0  0  0  0
  8  9  1  0  0  0  0
  9  2  1  0  0  0  0
 10 11  1  0  0  0  0
 12  7  1  0  0  0  0
 13 12  1  0  0  0  0
 14  1  1  0  0  0  0
 14 15  1  0  0  0  0
 15 17  1  0  0  0  0
 16 15  2  0  0  0  0
 17 18  1  0  0  0  0
 17 19  1  0  0  0  0
 19 20  1  0  0  0  0
 20 21  2  0  0  0  0
 20 26  1  0  0  0  0
 21 22  1  0  0  0  0
 22 23  2  0  0  0  0
 23 24  1  0  0  0  0
 25 23  1  0  0  0  0
 26 25  2  0  0  0  0
M  END
>  <MODEL>
8

>  <REMARK>
 VINA RESULT:    -5.870      7.978     11.692
 INTER + INTRA:          -9.816
 INTER:                  -8.615
 INTRA:                  -1.201
 UNBOUND:                -1.201
  Name = CHEMBL1324611
  11 active torsions:
  status: ('A' for Active; 'I' for Inactive)
    1  A    between atoms: C_1  and  O_2
    2  A    between atoms: O_2  and  C_3
    3  A    between atoms: C_5  and  C_6
    4  A    between atoms: C_6  and  C_7
    5  A    between atoms: C_7  and  C_8
    6  A    between atoms: N_10  and  C_11
    7  A    between atoms: C_11  and  C_12
    8  A    between atoms: C_20  and  O_21
    9  A    between atoms: O_21  and  C_22
   10  A    between atoms: C_23  and  O_24
   11  A    between atoms: O_24  and  C_25
                            x       y       z     vdW  Elec       q    Type
                         _______ _______ _______ _____ _____    ______ ____

>  <TORSDO>
F 8

>  <SCORE>
-5.870

>  <RMSD_LB>
7.978

>  <RMSD_UB>
11.692

$$$$
CHEMBL1324611
 OpenBabel10172500573D

 26 27  0  0  0  0  0  0  0  0999 V2000
  136.9370  132.3720  146.5780 C   0  0  0  0  0  2  0  0  0  0  0  0
  135.4590  135.8630  147.0340 C   0  0  0  0  0  0  0  0  0  0  0  0
  136.3250  134.8130  146.6950 C   0  0  0  0  0  3  0  0  0  0  0  0
  135.9770  133.4780  146.9350 C   0  0  0  0  0  0  0  0  0  0  0  0
  134.7570  133.1910  147.5490 C   0  0  0  0  0  3  0  0  0  0  0  0
  133.8880  134.2240  147.9200 C   0  0  0  0  0  0  0  0  0  0  0  0
  134.2160  135.5650  147.6270 C   0  0  0  0  0  0  0  0  0  0  0  0
  135.9820  137.6800  145.5750 C   0  0  0  0  0  1  0  0  0  0  0  0
  135.8130  137.1800  146.8960 O   0  0  0  0  0  0  0  0  0  0  0  0
  132.6780  133.9870  148.5290 O   0  0  0  0  0  0  0  0  0  0  0  0
  132.7480  133.6810  149.9190 C   0  0  0  0  0  1  0  0  0  0  0  0
  133.2880  136.5000  148.0290 O   0  0  0  0  0  0  0  0  0  0  0  0
  132.4650  137.0530  147.0090 C   0  0  0  0  0  1  0  0  0  0  0  0
  136.2270  131.1930  145.9210 C   0  0  0  0  0  2  0  0  0  0  0  0
  136.1340  131.4040  144.4270 C   0  0  0  0  0  0  0  0  0  0  0  0
  135.0700  131.3920  143.8180 O   0  0  0  0  0  0  0  0  0  0  0  0
  137.3460  131.6410  143.8160 N   0  0  0  0  0  0  0  0  0  0  0  0
  138.1570  131.7110  144.3700 H   0  0  0  0  0  0  0  0  0  0  0  0
  137.4560  131.7890  142.3880 C   0  0  0  0  0  2  0  0  0  0  0  0
  137.4530  133.2380  141.9790 C   0  0  0  0  0  0  0  0  0  0  0  0
  136.9930  133.6270  140.7120 C   0  0  0  0  0  3  0  0  0  0  0  0
  136.9440  134.9790  140.3630 C   0  0  0  0  0  3  0  0  0  0  0  0
  137.3640  135.9460  141.2740 C   0  0  0  0  0  0  0  0  0  0  0  0
  137.2670  137.6130  140.8560 Cl  0  0  0  0  0  0  0  0  0  0  0  0
  137.8520  135.5740  142.5240 C   0  0  0  0  0  3  0  0  0  0  0  0
  137.9040  134.2220  142.8730 C   0  0  0  0  0  3  0  0  0  0  0  0
  1  4  1  0  0  0  0
  2  7  1  0  0  0  0
  3  4  1  0  0  0  0
  3  2  2  0  0  0  0
  4  5  2  0  0  0  0
  5  6  1  0  0  0  0
  6 10  1  0  0  0  0
  7  6  2  0  0  0  0
  7 12  1  0  0  0  0
  8  9  1  0  0  0  0
  9  2  1  0  0  0  0
 10 11  1  0  0  0  0
 13 12  1  0  0  0  0
 14  1  1  0  0  0  0
 15 14  1  0  0  0  0
 16 15  2  0  0  0  0
 17 18  1  0  0  0  0
 17 15  1  0  0  0  0
 19 17  1  0  0  0  0
 20 19  1  0  0  0  0
 20 26  1  0  0  0  0
 21 20  2  0  0  0  0
 22 21  1  0  0  0  0
 22 23  2  0  0  0  0
 23 25  1  0  0  0  0
 24 23  1  0  0  0  0
 25 26  2  0  0  0  0
M  END
>  <MODEL>
9

>  <REMARK>
 VINA RESULT:    -5.869      7.568     10.291
 INTER + INTRA:          -9.814
 INTER:                  -8.601
 INTRA:                  -1.213
 UNBOUND:                -1.201
  Name = CHEMBL1324611
  11 active torsions:
  status: ('A' for Active; 'I' for Inactive)
    1  A    between atoms: C_1  and  O_2
    2  A    between atoms: O_2  and  C_3
    3  A    between atoms: C_5  and  C_6
    4  A    between atoms: C_6  and  C_7
    5  A    between atoms: C_7  and  C_8
    6  A    between atoms: N_10  and  C_11
    7  A    between atoms: C_11  and  C_12
    8  A    between atoms: C_20  and  O_21
    9  A    between atoms: O_21  and  C_22
   10  A    between atoms: C_23  and  O_24
   11  A    between atoms: O_24  and  C_25
                            x       y       z     vdW  Elec       q    Type
                         _______ _______ _______ _____ _____    ______ ____

>  <TORSDO>
F 8

>  <SCORE>
-5.869

>  <RMSD_LB>
7.568

>  <RMSD_UB>
10.291

$$$$
