CHEMBL5396122
 OpenBabel10172500203D

 22 22  0  0  0  0  0  0  0  0999 V2000
  133.6090  133.8230  151.8330 C   0  0  0  0  0  2  0  0  0  0  0  0
  132.9620  134.6300  148.1570 C   0  0  0  0  0  0  0  0  0  0  0  0
  133.0070  134.7290  149.5520 C   0  0  0  0  0  3  0  0  0  0  0  0
  133.5950  133.7140  150.3280 C   0  0  0  0  0  0  0  0  0  0  0  0
  134.1740  132.6110  149.6880 C   0  0  0  0  0  3  0  0  0  0  0  0
  134.1340  132.5010  148.2980 C   0  0  0  0  0  3  0  0  0  0  0  0
  133.5250  133.5030  147.5440 C   0  0  0  0  0  0  0  0  0  0  0  0
  132.8970  136.8830  147.3780 C   0  0  0  0  0  1  0  0  0  0  0  0
  132.3970  135.5560  147.3200 O   0  0  0  0  0  0  0  0  0  0  0  0
  133.4730  133.3880  146.1790 O   0  0  0  0  0  0  0  0  0  0  0  0
  134.2120  133.0530  145.7090 H   0  0  0  0  0  0  0  0  0  0  0  0
  134.8640  134.3690  152.2480 O   0  0  0  0  0  0  0  0  0  0  0  0
  134.9070  135.7160  152.4100 C   0  0  0  0  0  0  0  0  0  0  0  0
  133.9970  136.4110  152.8410 O   0  0  0  0  0  0  0  0  0  0  0  0
  136.2560  136.2640  152.0150 C   0  0  0  0  0  2  0  0  0  0  0  0
  136.8370  135.5840  150.7800 C   0  0  0  0  0  2  0  0  0  0  0  0
  136.2020  136.0790  149.4780 C   0  0  0  0  0  2  0  0  0  0  0  0
  137.2220  136.0410  148.3400 C   0  0  0  0  0  2  0  0  0  0  0  0
  136.8500  135.0050  147.2760 C   0  0  0  0  0  2  0  0  0  0  0  0
  137.9770  133.9900  147.0090 C   0  0  0  0  0  3  0  0  0  0  0  0
  138.8560  133.7540  148.2380 C   0  0  0  0  0  1  0  0  0  0  0  0
  137.3820  132.6620  146.5380 C   0  0  0  0  0  1  0  0  0  0  0  0
  1 12  1  0  0  0  0
  2  3  1  0  0  0  0
  3  4  2  0  0  0  0
  4  1  1  0  0  0  0
  5  4  1  0  0  0  0
  6  5  2  0  0  0  0
  7  2  2  0  0  0  0
  7  6  1  0  0  0  0
  9  8  1  0  0  0  0
  9  2  1  0  0  0  0
 10  7  1  0  0  0  0
 11 10  1  0  0  0  0
 12 13  1  0  0  0  0
 13 14  2  0  0  0  0
 15 13  1  0  0  0  0
 16 15  1  0  0  0  0
 17 16  1  0  0  0  0
 18 17  1  0  0  0  0
 19 18  1  0  0  0  0
 20 19  1  0  0  0  0
 20 21  1  0  0  0  0
 22 20  1  0  0  0  0
M  END
>  <MODEL>
1

>  <REMARK>
 VINA RESULT:    -5.577      0.000      0.000
 INTER + INTRA:         -10.793
 INTER:                  -8.865
 INTRA:                  -1.928
 UNBOUND:                -1.792
  Name = CHEMBL5396122
  14 active torsions:
  status: ('A' for Active; 'I' for Inactive)
    1  A    between atoms: C_1  and  O_2
    2  A    between atoms: O_2  and  C_3
    3  A    between atoms: C_5  and  C_6
    4  A    between atoms: C_6  and  O_7
    5  A    between atoms: O_7  and  C_8
    6  A    between atoms: C_8  and  C_10
    7  A    between atoms: C_10  and  C_11
    8  A    between atoms: C_11  and  C_12
    9  A    between atoms: C_12  and  C_13
   10  A    between atoms: C_13  and  C_14
   11  A    between atoms: C_14  and  C_15
   12  A    between atoms: C_15  and  C_16
   13  A    between atoms: C_15  and  C_17
   14  A    between atoms: C_20  and  O_21
                            x       y       z     vdW  Elec       q    Type
                         _______ _______ _______ _____ _____    ______ ____

>  <TORSDO>
F 11

>  <SCORE>
-5.577

>  <RMSD_LB>
0.000

>  <RMSD_UB>
0.000

$$$$
CHEMBL5396122
 OpenBabel10172500203D

 22 22  0  0  0  0  0  0  0  0999 V2000
  141.3570  137.2780  150.3450 C   0  0  0  0  0  2  0  0  0  0  0  0
  139.8320  138.4200  153.6540 C   0  0  0  0  0  0  0  0  0  0  0  0
  140.7560  138.1520  152.6380 C   0  0  0  0  0  3  0  0  0  0  0  0
  140.3430  137.5860  151.4180 C   0  0  0  0  0  0  0  0  0  0  0  0
  138.9830  137.3240  151.2110 C   0  0  0  0  0  3  0  0  0  0  0  0
  138.0530  137.5860  152.2170 C   0  0  0  0  0  3  0  0  0  0  0  0
  138.4810  138.1230  153.4300 C   0  0  0  0  0  0  0  0  0  0  0  0
  140.6880  138.0760  155.8540 C   0  0  0  0  0  1  0  0  0  0  0  0
  140.1410  138.9510  154.8790 O   0  0  0  0  0  0  0  0  0  0  0  0
  137.5690  138.3660  154.4240 O   0  0  0  0  0  0  0  0  0  0  0  0
  137.1020  137.6540  154.8150 H   0  0  0  0  0  0  0  0  0  0  0  0
  141.1580  138.1720  149.2470 O   0  0  0  0  0  0  0  0  0  0  0  0
  141.5050  139.4680  149.4590 C   0  0  0  0  0  0  0  0  0  0  0  0
  140.7250  140.3940  149.6350 O   0  0  0  0  0  0  0  0  0  0  0  0
  143.0040  139.6270  149.4850 C   0  0  0  0  0  2  0  0  0  0  0  0
  143.5270  140.1420  150.8220 C   0  0  0  0  0  2  0  0  0  0  0  0
  145.0380  140.3880  150.8110 C   0  0  0  0  0  2  0  0  0  0  0  0
  145.3340  141.8700  150.5750 C   0  0  0  0  0  2  0  0  0  0  0  0
  145.8850  142.5470  151.8320 C   0  0  0  0  0  2  0  0  0  0  0  0
  146.9160  141.6780  152.5770 C   0  0  0  0  0  3  0  0  0  0  0  0
  148.3460  141.9220  152.0940 C   0  0  0  0  0  1  0  0  0  0  0  0
  146.8290  141.9420  154.0820 C   0  0  0  0  0  1  0  0  0  0  0  0
  1  4  1  0  0  0  0
  2  9  1  0  0  0  0
  3  2  2  0  0  0  0
  4  3  1  0  0  0  0
  5  4  2  0  0  0  0
  5  6  1  0  0  0  0
  6  7  2  0  0  0  0
  7  2  1  0  0  0  0
  7 10  1  0  0  0  0
  9  8  1  0  0  0  0
 10 11  1  0  0  0  0
 12 13  1  0  0  0  0
 12  1  1  0  0  0  0
 13 15  1  0  0  0  0
 13 14  2  0  0  0  0
 15 16  1  0  0  0  0
 17 16  1  0  0  0  0
 18 17  1  0  0  0  0
 18 19  1  0  0  0  0
 19 20  1  0  0  0  0
 20 22  1  0  0  0  0
 21 20  1  0  0  0  0
M  END
>  <MODEL>
2

>  <REMARK>
 VINA RESULT:    -5.463      7.778     10.076
 INTER + INTRA:         -10.608
 INTER:                  -9.695
 INTRA:                  -0.913
 UNBOUND:                -1.792
  Name = CHEMBL5396122
  14 active torsions:
  status: ('A' for Active; 'I' for Inactive)
    1  A    between atoms: C_1  and  O_2
    2  A    between atoms: O_2  and  C_3
    3  A    between atoms: C_5  and  C_6
    4  A    between atoms: C_6  and  O_7
    5  A    between atoms: O_7  and  C_8
    6  A    between atoms: C_8  and  C_10
    7  A    between atoms: C_10  and  C_11
    8  A    between atoms: C_11  and  C_12
    9  A    between atoms: C_12  and  C_13
   10  A    between atoms: C_13  and  C_14
   11  A    between atoms: C_14  and  C_15
   12  A    between atoms: C_15  and  C_16
   13  A    between atoms: C_15  and  C_17
   14  A    between atoms: C_20  and  O_21
                            x       y       z     vdW  Elec       q    Type
                         _______ _______ _______ _____ _____    ______ ____

>  <TORSDO>
F 11

>  <SCORE>
-5.463

>  <RMSD_LB>
7.778

>  <RMSD_UB>
10.076

$$$$
CHEMBL5396122
 OpenBabel10172500203D

 22 22  0  0  0  0  0  0  0  0999 V2000
  135.8060  134.5070  151.8890 C   0  0  0  0  0  2  0  0  0  0  0  0
  134.3570  134.0600  148.3840 C   0  0  0  0  0  0  0  0  0  0  0  0
  135.2580  134.2740  149.4330 C   0  0  0  0  0  3  0  0  0  0  0  0
  134.8270  134.2450  150.7720 C   0  0  0  0  0  0  0  0  0  0  0  0
  133.4840  133.9620  151.0520 C   0  0  0  0  0  3  0  0  0  0  0  0
  132.5760  133.7480  150.0160 C   0  0  0  0  0  3  0  0  0  0  0  0
  133.0140  133.8050  148.6920 C   0  0  0  0  0  0  0  0  0  0  0  0
  135.4800  133.0260  146.5520 C   0  0  0  0  0  1  0  0  0  0  0  0
  134.6790  134.0860  147.0530 O   0  0  0  0  0  0  0  0  0  0  0  0
  132.1190  133.6100  147.6730 O   0  0  0  0  0  0  0  0  0  0  0  0
  131.6960  132.7790  147.5750 H   0  0  0  0  0  0  0  0  0  0  0  0
  135.6580  135.8600  152.3290 O   0  0  0  0  0  0  0  0  0  0  0  0
  135.2080  136.0310  153.5990 C   0  0  0  0  0  0  0  0  0  0  0  0
  134.0600  136.3110  153.9150 O   0  0  0  0  0  0  0  0  0  0  0  0
  136.3130  135.7980  154.5980 C   0  0  0  0  0  2  0  0  0  0  0  0
  137.3200  136.9420  154.6520 C   0  0  0  0  0  2  0  0  0  0  0  0
  137.3450  137.6440  156.0120 C   0  0  0  0  0  2  0  0  0  0  0  0
  137.8540  136.6910  157.0940 C   0  0  0  0  0  2  0  0  0  0  0  0
  136.8550  136.5500  158.2450 C   0  0  0  0  0  2  0  0  0  0  0  0
  136.4020  135.0950  158.4700 C   0  0  0  0  0  3  0  0  0  0  0  0
  136.4490  134.6890  159.9440 C   0  0  0  0  0  1  0  0  0  0  0  0
  134.9850  134.9010  157.9270 C   0  0  0  0  0  1  0  0  0  0  0  0
  1 12  1  0  0  0  0
  2  7  2  0  0  0  0
  2  3  1  0  0  0  0
  3  4  2  0  0  0  0
  4  5  1  0  0  0  0
  4  1  1  0  0  0  0
  6  5  2  0  0  0  0
  7  6  1  0  0  0  0
  8  9  1  0  0  0  0
  9  2  1  0  0  0  0
 10  7  1  0  0  0  0
 11 10  1  0  0  0  0
 12 13  1  0  0  0  0
 13 14  2  0  0  0  0
 13 15  1  0  0  0  0
 15 16  1  0  0  0  0
 16 17  1  0  0  0  0
 17 18  1  0  0  0  0
 18 19  1  0  0  0  0
 19 20  1  0  0  0  0
 20 21  1  0  0  0  0
 22 20  1  0  0  0  0
M  END
>  <MODEL>
3

>  <REMARK>
 VINA RESULT:    -5.404      3.525      6.004
 INTER + INTRA:         -10.514
 INTER:                  -9.652
 INTRA:                  -0.862
 UNBOUND:                -1.792
  Name = CHEMBL5396122
  14 active torsions:
  status: ('A' for Active; 'I' for Inactive)
    1  A    between atoms: C_1  and  O_2
    2  A    between atoms: O_2  and  C_3
    3  A    between atoms: C_5  and  C_6
    4  A    between atoms: C_6  and  O_7
    5  A    between atoms: O_7  and  C_8
    6  A    between atoms: C_8  and  C_10
    7  A    between atoms: C_10  and  C_11
    8  A    between atoms: C_11  and  C_12
    9  A    between atoms: C_12  and  C_13
   10  A    between atoms: C_13  and  C_14
   11  A    between atoms: C_14  and  C_15
   12  A    between atoms: C_15  and  C_16
   13  A    between atoms: C_15  and  C_17
   14  A    between atoms: C_20  and  O_21
                            x       y       z     vdW  Elec       q    Type
                         _______ _______ _______ _____ _____    ______ ____

>  <TORSDO>
F 11

>  <SCORE>
-5.404

>  <RMSD_LB>
3.525

>  <RMSD_UB>
6.004

$$$$
CHEMBL5396122
 OpenBabel10172500203D

 22 22  0  0  0  0  0  0  0  0999 V2000
  143.0700  137.2060  151.1740 C   0  0  0  0  0  2  0  0  0  0  0  0
  141.5150  138.9670  154.1840 C   0  0  0  0  0  0  0  0  0  0  0  0
  142.4520  138.4820  153.2660 C   0  0  0  0  0  3  0  0  0  0  0  0
  142.0440  137.7460  152.1380 C   0  0  0  0  0  0  0  0  0  0  0  0
  140.6770  137.5330  151.9190 C   0  0  0  0  0  3  0  0  0  0  0  0
  139.7340  138.0100  152.8280 C   0  0  0  0  0  3  0  0  0  0  0  0
  140.1560  138.7160  153.9540 C   0  0  0  0  0  0  0  0  0  0  0  0
  143.1870  139.7910  155.6720 C   0  0  0  0  0  1  0  0  0  0  0  0
  141.8170  139.6760  155.3170 O   0  0  0  0  0  0  0  0  0  0  0  0
  139.2300  139.1730  154.8550 O   0  0  0  0  0  0  0  0  0  0  0  0
  139.3540  139.0220  155.7720 H   0  0  0  0  0  0  0  0  0  0  0  0
  144.1600  138.1290  151.0890 O   0  0  0  0  0  0  0  0  0  0  0  0
  144.1180  139.0110  150.0560 C   0  0  0  0  0  0  0  0  0  0  0  0
  143.6910  138.7750  148.9350 O   0  0  0  0  0  0  0  0  0  0  0  0
  144.6450  140.3590  150.4790 C   0  0  0  0  0  2  0  0  0  0  0  0
  146.1260  140.5470  150.1620 C   0  0  0  0  0  2  0  0  0  0  0  0
  146.7180  141.7950  150.8220 C   0  0  0  0  0  2  0  0  0  0  0  0
  145.7260  142.3890  151.8220 C   0  0  0  0  0  2  0  0  0  0  0  0
  146.2380  142.2870  153.2610 C   0  0  0  0  0  2  0  0  0  0  0  0
  147.4040  141.2930  153.4130 C   0  0  0  0  0  3  0  0  0  0  0  0
  148.6050  141.9050  154.1370 C   0  0  0  0  0  1  0  0  0  0  0  0
  146.9330  140.0460  154.1620 C   0  0  0  0  0  1  0  0  0  0  0  0
  1  4  1  0  0  0  0
  2  9  1  0  0  0  0
  3  2  2  0  0  0  0
  4  3  1  0  0  0  0
  5  4  2  0  0  0  0
  5  6  1  0  0  0  0
  6  7  2  0  0  0  0
  7  2  1  0  0  0  0
  7 10  1  0  0  0  0
  9  8  1  0  0  0  0
 10 11  1  0  0  0  0
 12  1  1  0  0  0  0
 13 15  1  0  0  0  0
 13 12  1  0  0  0  0
 14 13  2  0  0  0  0
 16 15  1  0  0  0  0
 16 17  1  0  0  0  0
 17 18  1  0  0  0  0
 18 19  1  0  0  0  0
 19 20  1  0  0  0  0
 20 21  1  0  0  0  0
 20 22  1  0  0  0  0
M  END
>  <MODEL>
4

>  <REMARK>
 VINA RESULT:    -5.402      9.056     11.438
 INTER + INTRA:         -10.511
 INTER:                  -9.361
 INTRA:                  -1.150
 UNBOUND:                -1.792
  Name = CHEMBL5396122
  14 active torsions:
  status: ('A' for Active; 'I' for Inactive)
    1  A    between atoms: C_1  and  O_2
    2  A    between atoms: O_2  and  C_3
    3  A    between atoms: C_5  and  C_6
    4  A    between atoms: C_6  and  O_7
    5  A    between atoms: O_7  and  C_8
    6  A    between atoms: C_8  and  C_10
    7  A    between atoms: C_10  and  C_11
    8  A    between atoms: C_11  and  C_12
    9  A    between atoms: C_12  and  C_13
   10  A    between atoms: C_13  and  C_14
   11  A    between atoms: C_14  and  C_15
   12  A    between atoms: C_15  and  C_16
   13  A    between atoms: C_15  and  C_17
   14  A    between atoms: C_20  and  O_21
                            x       y       z     vdW  Elec       q    Type
                         _______ _______ _______ _____ _____    ______ ____

>  <TORSDO>
F 11

>  <SCORE>
-5.402

>  <RMSD_LB>
9.056

>  <RMSD_UB>
11.438

$$$$
CHEMBL5396122
 OpenBabel10172500203D

 22 22  0  0  0  0  0  0  0  0999 V2000
  138.8720  138.2600  154.8140 C   0  0  0  0  0  2  0  0  0  0  0  0
  140.6540  137.8690  151.4590 C   0  0  0  0  0  0  0  0  0  0  0  0
  140.4120  138.1100  152.8160 C   0  0  0  0  0  3  0  0  0  0  0  0
  139.1210  137.9670  153.3550 C   0  0  0  0  0  0  0  0  0  0  0  0
  138.0760  137.5410  152.5250 C   0  0  0  0  0  3  0  0  0  0  0  0
  138.3040  137.2990  151.1710 C   0  0  0  0  0  3  0  0  0  0  0  0
  139.5850  137.4690  150.6460 C   0  0  0  0  0  0  0  0  0  0  0  0
  142.8720  137.0440  151.1610 C   0  0  0  0  0  1  0  0  0  0  0  0
  141.8700  137.9980  150.8410 O   0  0  0  0  0  0  0  0  0  0  0  0
  139.8070  137.2450  149.3120 O   0  0  0  0  0  0  0  0  0  0  0  0
  139.2970  137.7000  148.6700 H   0  0  0  0  0  0  0  0  0  0  0  0
  138.1890  137.1490  155.4010 O   0  0  0  0  0  0  0  0  0  0  0  0
  137.1390  137.4500  156.2090 C   0  0  0  0  0  0  0  0  0  0  0  0
  136.9710  138.5120  156.7910 O   0  0  0  0  0  0  0  0  0  0  0  0
  136.1660  136.3000  156.2790 C   0  0  0  0  0  2  0  0  0  0  0  0
  136.0800  135.5100  154.9760 C   0  0  0  0  0  2  0  0  0  0  0  0
  134.7080  134.8650  154.7650 C   0  0  0  0  0  2  0  0  0  0  0  0
  134.7160  133.9990  153.5050 C   0  0  0  0  0  2  0  0  0  0  0  0
  135.8230  134.4180  152.5330 C   0  0  0  0  0  2  0  0  0  0  0  0
  135.3340  134.5210  151.0760 C   0  0  0  0  0  3  0  0  0  0  0  0
  134.2400  133.5020  150.7530 C   0  0  0  0  0  1  0  0  0  0  0  0
  134.8190  135.9340  150.7970 C   0  0  0  0  0  1  0  0  0  0  0  0
  1 12  1  0  0  0  0
  2  3  1  0  0  0  0
  3  4  2  0  0  0  0
  4  1  1  0  0  0  0
  5  4  1  0  0  0  0
  6  5  2  0  0  0  0
  7  6  1  0  0  0  0
  7  2  2  0  0  0  0
  9  8  1  0  0  0  0
  9  2  1  0  0  0  0
 10  7  1  0  0  0  0
 11 10  1  0  0  0  0
 12 13  1  0  0  0  0
 13 15  1  0  0  0  0
 13 14  2  0  0  0  0
 16 15  1  0  0  0  0
 17 16  1  0  0  0  0
 18 17  1  0  0  0  0
 19 18  1  0  0  0  0
 20 19  1  0  0  0  0
 21 20  1  0  0  0  0
 22 20  1  0  0  0  0
M  END
>  <MODEL>
5

>  <REMARK>
 VINA RESULT:    -5.376      4.103      6.962
 INTER + INTRA:         -10.468
 INTER:                  -9.006
 INTRA:                  -1.462
 UNBOUND:                -1.792
  Name = CHEMBL5396122
  14 active torsions:
  status: ('A' for Active; 'I' for Inactive)
    1  A    between atoms: C_1  and  O_2
    2  A    between atoms: O_2  and  C_3
    3  A    between atoms: C_5  and  C_6
    4  A    between atoms: C_6  and  O_7
    5  A    between atoms: O_7  and  C_8
    6  A    between atoms: C_8  and  C_10
    7  A    between atoms: C_10  and  C_11
    8  A    between atoms: C_11  and  C_12
    9  A    between atoms: C_12  and  C_13
   10  A    between atoms: C_13  and  C_14
   11  A    between atoms: C_14  and  C_15
   12  A    between atoms: C_15  and  C_16
   13  A    between atoms: C_15  and  C_17
   14  A    between atoms: C_20  and  O_21
                            x       y       z     vdW  Elec       q    Type
                         _______ _______ _______ _____ _____    ______ ____

>  <TORSDO>
F 11

>  <SCORE>
-5.376

>  <RMSD_LB>
4.103

>  <RMSD_UB>
6.962

$$$$
CHEMBL5396122
 OpenBabel10172500203D

 22 22  0  0  0  0  0  0  0  0999 V2000
  143.7740  137.8040  153.7940 C   0  0  0  0  0  2  0  0  0  0  0  0
  140.7110  137.4850  151.5370 C   0  0  0  0  0  0  0  0  0  0  0  0
  141.5290  137.7700  152.6350 C   0  0  0  0  0  3  0  0  0  0  0  0
  142.9120  137.5170  152.5900 C   0  0  0  0  0  0  0  0  0  0  0  0
  143.4760  137.0060  151.4140 C   0  0  0  0  0  3  0  0  0  0  0  0
  142.6710  136.7160  150.3130 C   0  0  0  0  0  3  0  0  0  0  0  0
  141.2980  136.9490  150.3820 C   0  0  0  0  0  0  0  0  0  0  0  0
  138.6700  137.7970  152.7300 C   0  0  0  0  0  1  0  0  0  0  0  0
  139.3560  137.6800  151.4920 O   0  0  0  0  0  0  0  0  0  0  0  0
  140.5040  136.6500  149.3050 O   0  0  0  0  0  0  0  0  0  0  0  0
  140.7820  136.8820  148.4410 H   0  0  0  0  0  0  0  0  0  0  0  0
  144.9120  136.9370  153.7680 O   0  0  0  0  0  0  0  0  0  0  0  0
  146.1110  137.5140  154.0430 C   0  0  0  0  0  0  0  0  0  0  0  0
  147.0720  136.9510  154.5480 O   0  0  0  0  0  0  0  0  0  0  0  0
  146.1250  138.9590  153.6120 C   0  0  0  0  0  2  0  0  0  0  0  0
  146.8940  139.8610  154.5720 C   0  0  0  0  0  2  0  0  0  0  0  0
  148.1300  140.4920  153.9280 C   0  0  0  0  0  2  0  0  0  0  0  0
  147.7890  141.8700  153.3600 C   0  0  0  0  0  2  0  0  0  0  0  0
  148.1530  141.9800  151.8770 C   0  0  0  0  0  2  0  0  0  0  0  0
  146.9170  142.0830  150.9640 C   0  0  0  0  0  3  0  0  0  0  0  0
  146.6760  140.8050  150.1590 C   0  0  0  0  0  1  0  0  0  0  0  0
  145.6770  142.4080  151.7980 C   0  0  0  0  0  1  0  0  0  0  0  0
  2  3  1  0  0  0  0
  4  3  2  0  0  0  0
  4  1  1  0  0  0  0
  5  4  1  0  0  0  0
  6  7  1  0  0  0  0
  6  5  2  0  0  0  0
  7  2  2  0  0  0  0
  9  2  1  0  0  0  0
  9  8  1  0  0  0  0
 10  7  1  0  0  0  0
 11 10  1  0  0  0  0
 12  1  1  0  0  0  0
 12 13  1  0  0  0  0
 13 14  2  0  0  0  0
 15 13  1  0  0  0  0
 15 16  1  0  0  0  0
 17 16  1  0  0  0  0
 18 17  1  0  0  0  0
 19 18  1  0  0  0  0
 20 22  1  0  0  0  0
 20 19  1  0  0  0  0
 21 20  1  0  0  0  0
M  END
>  <MODEL>
6

>  <REMARK>
 VINA RESULT:    -5.308      9.290     11.043
 INTER + INTRA:         -10.359
 INTER:                  -9.147
 INTRA:                  -1.212
 UNBOUND:                -1.792
  Name = CHEMBL5396122
  14 active torsions:
  status: ('A' for Active; 'I' for Inactive)
    1  A    between atoms: C_1  and  O_2
    2  A    between atoms: O_2  and  C_3
    3  A    between atoms: C_5  and  C_6
    4  A    between atoms: C_6  and  O_7
    5  A    between atoms: O_7  and  C_8
    6  A    between atoms: C_8  and  C_10
    7  A    between atoms: C_10  and  C_11
    8  A    between atoms: C_11  and  C_12
    9  A    between atoms: C_12  and  C_13
   10  A    between atoms: C_13  and  C_14
   11  A    between atoms: C_14  and  C_15
   12  A    between atoms: C_15  and  C_16
   13  A    between atoms: C_15  and  C_17
   14  A    between atoms: C_20  and  O_21
                            x       y       z     vdW  Elec       q    Type
                         _______ _______ _______ _____ _____    ______ ____

>  <TORSDO>
F 11

>  <SCORE>
-5.308

>  <RMSD_LB>
9.290

>  <RMSD_UB>
11.043

$$$$
CHEMBL5396122
 OpenBabel10172500203D

 22 22  0  0  0  0  0  0  0  0999 V2000
  142.7520  137.4650  150.2450 C   0  0  0  0  0  2  0  0  0  0  0  0
  140.4660  138.4000  153.1570 C   0  0  0  0  0  0  0  0  0  0  0  0
  141.6060  138.2200  152.3660 C   0  0  0  0  0  3  0  0  0  0  0  0
  141.5090  137.6780  151.0720 C   0  0  0  0  0  0  0  0  0  0  0  0
  140.2470  137.3500  150.5600 C   0  0  0  0  0  3  0  0  0  0  0  0
  139.1030  137.5230  151.3390 C   0  0  0  0  0  3  0  0  0  0  0  0
  139.2180  138.0380  152.6300 C   0  0  0  0  0  0  0  0  0  0  0  0
  141.7170  139.2110  155.0180 C   0  0  0  0  0  1  0  0  0  0  0  0
  140.4610  138.9020  154.4310 O   0  0  0  0  0  0  0  0  0  0  0  0
  138.0960  138.1940  153.4000 O   0  0  0  0  0  0  0  0  0  0  0  0
  137.3200  137.7070  153.2010 H   0  0  0  0  0  0  0  0  0  0  0  0
  143.6700  136.6550  150.9860 O   0  0  0  0  0  0  0  0  0  0  0  0
  144.9890  136.8700  150.7430 C   0  0  0  0  0  0  0  0  0  0  0  0
  145.8070  136.0100  150.4460 O   0  0  0  0  0  0  0  0  0  0  0  0
  145.3260  138.3350  150.8560 C   0  0  0  0  0  2  0  0  0  0  0  0
  145.4570  138.8090  152.3000 C   0  0  0  0  0  2  0  0  0  0  0  0
  144.7720  140.1560  152.5450 C   0  0  0  0  0  2  0  0  0  0  0  0
  144.7320  140.9740  151.2540 C   0  0  0  0  0  2  0  0  0  0  0  0
  145.4430  142.3200  151.4110 C   0  0  0  0  0  2  0  0  0  0  0  0
  146.6810  142.4530  150.5030 C   0  0  0  0  0  3  0  0  0  0  0  0
  147.9740  142.0490  151.2120 C   0  0  0  0  0  1  0  0  0  0  0  0
  146.4970  141.6030  149.2440 C   0  0  0  0  0  1  0  0  0  0  0  0
  1 12  1  0  0  0  0
  1  4  1  0  0  0  0
  2  9  1  0  0  0  0
  3  2  2  0  0  0  0
  4  3  1  0  0  0  0
  5  4  2  0  0  0  0
  5  6  1  0  0  0  0
  6  7  2  0  0  0  0
  7  2  1  0  0  0  0
  7 10  1  0  0  0  0
  9  8  1  0  0  0  0
 11 10  1  0  0  0  0
 13 15  1  0  0  0  0
 13 12  1  0  0  0  0
 14 13  2  0  0  0  0
 15 16  1  0  0  0  0
 16 17  1  0  0  0  0
 18 19  1  0  0  0  0
 18 17  1  0  0  0  0
 20 21  1  0  0  0  0
 20 19  1  0  0  0  0
 22 20  1  0  0  0  0
M  END
>  <MODEL>
7

>  <REMARK>
 VINA RESULT:    -5.181      8.148     10.386
 INTER + INTRA:         -10.153
 INTER:                  -8.636
 INTRA:                  -1.517
 UNBOUND:                -1.792
  Name = CHEMBL5396122
  14 active torsions:
  status: ('A' for Active; 'I' for Inactive)
    1  A    between atoms: C_1  and  O_2
    2  A    between atoms: O_2  and  C_3
    3  A    between atoms: C_5  and  C_6
    4  A    between atoms: C_6  and  O_7
    5  A    between atoms: O_7  and  C_8
    6  A    between atoms: C_8  and  C_10
    7  A    between atoms: C_10  and  C_11
    8  A    between atoms: C_11  and  C_12
    9  A    between atoms: C_12  and  C_13
   10  A    between atoms: C_13  and  C_14
   11  A    between atoms: C_14  and  C_15
   12  A    between atoms: C_15  and  C_16
   13  A    between atoms: C_15  and  C_17
   14  A    between atoms: C_20  and  O_21
                            x       y       z     vdW  Elec       q    Type
                         _______ _______ _______ _____ _____    ______ ____

>  <TORSDO>
F 11

>  <SCORE>
-5.181

>  <RMSD_LB>
8.148

>  <RMSD_UB>
10.386

$$$$
CHEMBL5396122
 OpenBabel10172500203D

 22 22  0  0  0  0  0  0  0  0999 V2000
  144.7780  136.7460  150.8330 C   0  0  0  0  0  2  0  0  0  0  0  0
  141.0030  137.3180  150.9180 C   0  0  0  0  0  0  0  0  0  0  0  0
  142.2900  137.0000  150.4700 C   0  0  0  0  0  3  0  0  0  0  0  0
  143.3930  137.0640  151.3400 C   0  0  0  0  0  0  0  0  0  0  0  0
  143.1880  137.4160  152.6810 C   0  0  0  0  0  3  0  0  0  0  0  0
  141.9110  137.7360  153.1380 C   0  0  0  0  0  3  0  0  0  0  0  0
  140.8300  137.6920  152.2570 C   0  0  0  0  0  0  0  0  0  0  0  0
  139.7000  136.2040  149.2590 C   0  0  0  0  0  1  0  0  0  0  0  0
  139.8740  137.3020  150.1430 O   0  0  0  0  0  0  0  0  0  0  0  0
  139.5770  138.0210  152.7040 O   0  0  0  0  0  0  0  0  0  0  0  0
  138.9150  138.2770  152.0920 H   0  0  0  0  0  0  0  0  0  0  0  0
  144.7980  136.8990  149.4100 O   0  0  0  0  0  0  0  0  0  0  0  0
  145.8000  137.6640  148.9050 C   0  0  0  0  0  0  0  0  0  0  0  0
  146.5410  137.3490  147.9850 O   0  0  0  0  0  0  0  0  0  0  0  0
  145.8690  138.9960  149.6100 C   0  0  0  0  0  2  0  0  0  0  0  0
  144.7350  139.9380  149.2190 C   0  0  0  0  0  2  0  0  0  0  0  0
  144.0490  140.5720  150.4320 C   0  0  0  0  0  2  0  0  0  0  0  0
  145.0390  140.7130  151.5890 C   0  0  0  0  0  2  0  0  0  0  0  0
  145.4970  142.1620  151.7730 C   0  0  0  0  0  2  0  0  0  0  0  0
  146.9600  142.3870  151.3460 C   0  0  0  0  0  3  0  0  0  0  0  0
  147.8430  141.1680  151.6200 C   0  0  0  0  0  1  0  0  0  0  0  0
  147.0210  142.7430  149.8600 C   0  0  0  0  0  1  0  0  0  0  0  0
  1  4  1  0  0  0  0
  2  7  1  0  0  0  0
  3  2  2  0  0  0  0
  3  4  1  0  0  0  0
  4  5  2  0  0  0  0
  5  6  1  0  0  0  0
  7 10  1  0  0  0  0
  7  6  2  0  0  0  0
  8  9  1  0  0  0  0
  9  2  1  0  0  0  0
 11 10  1  0  0  0  0
 12  1  1  0  0  0  0
 13 12  1  0  0  0  0
 13 15  1  0  0  0  0
 14 13  2  0  0  0  0
 16 15  1  0  0  0  0
 16 17  1  0  0  0  0
 17 18  1  0  0  0  0
 18 19  1  0  0  0  0
 20 21  1  0  0  0  0
 20 19  1  0  0  0  0
 22 20  1  0  0  0  0
M  END
>  <MODEL>
8

>  <REMARK>
 VINA RESULT:    -5.145      8.543     10.723
 INTER + INTRA:         -10.095
 INTER:                  -8.303
 INTRA:                  -1.792
 UNBOUND:                -1.792
  Name = CHEMBL5396122
  14 active torsions:
  status: ('A' for Active; 'I' for Inactive)
    1  A    between atoms: C_1  and  O_2
    2  A    between atoms: O_2  and  C_3
    3  A    between atoms: C_5  and  C_6
    4  A    between atoms: C_6  and  O_7
    5  A    between atoms: O_7  and  C_8
    6  A    between atoms: C_8  and  C_10
    7  A    between atoms: C_10  and  C_11
    8  A    between atoms: C_11  and  C_12
    9  A    between atoms: C_12  and  C_13
   10  A    between atoms: C_13  and  C_14
   11  A    between atoms: C_14  and  C_15
   12  A    between atoms: C_15  and  C_16
   13  A    between atoms: C_15  and  C_17
   14  A    between atoms: C_20  and  O_21
                            x       y       z     vdW  Elec       q    Type
                         _______ _______ _______ _____ _____    ______ ____

>  <TORSDO>
F 11

>  <SCORE>
-5.145

>  <RMSD_LB>
8.543

>  <RMSD_UB>
10.723

$$$$
CHEMBL5396122
 OpenBabel10172500203D

 22 22  0  0  0  0  0  0  0  0999 V2000
  143.3600  137.8110  152.5990 C   0  0  0  0  0  2  0  0  0  0  0  0
  139.9180  137.3470  151.0110 C   0  0  0  0  0  0  0  0  0  0  0  0
  141.3050  137.3660  151.1970 C   0  0  0  0  0  3  0  0  0  0  0  0
  141.8620  137.7680  152.4250 C   0  0  0  0  0  0  0  0  0  0  0  0
  141.0110  138.1180  153.4810 C   0  0  0  0  0  3  0  0  0  0  0  0
  139.6280  138.1030  153.3070 C   0  0  0  0  0  3  0  0  0  0  0  0
  139.0910  137.7270  152.0760 C   0  0  0  0  0  0  0  0  0  0  0  0
  139.8960  137.3670  148.6260 C   0  0  0  0  0  1  0  0  0  0  0  0
  139.2850  136.9890  149.8500 O   0  0  0  0  0  0  0  0  0  0  0  0
  137.7320  137.7270  151.9010 O   0  0  0  0  0  0  0  0  0  0  0  0
  137.2750  136.9180  151.7790 H   0  0  0  0  0  0  0  0  0  0  0  0
  143.9110  138.7350  151.6560 O   0  0  0  0  0  0  0  0  0  0  0  0
  145.2660  138.8190  151.6230 C   0  0  0  0  0  0  0  0  0  0  0  0
  146.0080  138.7520  152.5930 O   0  0  0  0  0  0  0  0  0  0  0  0
  145.7610  138.9770  150.2070 C   0  0  0  0  0  2  0  0  0  0  0  0
  145.2190  140.2270  149.5210 C   0  0  0  0  0  2  0  0  0  0  0  0
  146.3230  141.2140  149.1320 C   0  0  0  0  0  2  0  0  0  0  0  0
  146.3680  142.3790  150.1220 C   0  0  0  0  0  2  0  0  0  0  0  0
  147.7040  142.4410  150.8670 C   0  0  0  0  0  2  0  0  0  0  0  0
  147.6620  141.7240  152.2300 C   0  0  0  0  0  3  0  0  0  0  0  0
  148.9600  141.8950  153.0210 C   0  0  0  0  0  1  0  0  0  0  0  0
  146.4840  142.2420  153.0560 C   0  0  0  0  0  1  0  0  0  0  0  0
  2  3  2  0  0  0  0
  2  7  1  0  0  0  0
  3  4  1  0  0  0  0
  4  1  1  0  0  0  0
  4  5  2  0  0  0  0
  6  5  1  0  0  0  0
  7  6  2  0  0  0  0
  8  9  1  0  0  0  0
  9  2  1  0  0  0  0
 10  7  1  0  0  0  0
 11 10  1  0  0  0  0
 12  1  1  0  0  0  0
 13 12  1  0  0  0  0
 13 14  2  0  0  0  0
 15 13  1  0  0  0  0
 16 15  1  0  0  0  0
 17 16  1  0  0  0  0
 17 18  1  0  0  0  0
 18 19  1  0  0  0  0
 19 20  1  0  0  0  0
 20 21  1  0  0  0  0
 20 22  1  0  0  0  0
M  END
>  <MODEL>
9

>  <REMARK>
 VINA RESULT:    -5.088      8.729     10.604
 INTER + INTRA:         -10.004
 INTER:                  -9.033
 INTRA:                  -0.971
 UNBOUND:                -1.792
  Name = CHEMBL5396122
  14 active torsions:
  status: ('A' for Active; 'I' for Inactive)
    1  A    between atoms: C_1  and  O_2
    2  A    between atoms: O_2  and  C_3
    3  A    between atoms: C_5  and  C_6
    4  A    between atoms: C_6  and  O_7
    5  A    between atoms: O_7  and  C_8
    6  A    between atoms: C_8  and  C_10
    7  A    between atoms: C_10  and  C_11
    8  A    between atoms: C_11  and  C_12
    9  A    between atoms: C_12  and  C_13
   10  A    between atoms: C_13  and  C_14
   11  A    between atoms: C_14  and  C_15
   12  A    between atoms: C_15  and  C_16
   13  A    between atoms: C_15  and  C_17
   14  A    between atoms: C_20  and  O_21
                            x       y       z     vdW  Elec       q    Type
                         _______ _______ _______ _____ _____    ______ ____

>  <TORSDO>
F 11

>  <SCORE>
-5.088

>  <RMSD_LB>
8.729

>  <RMSD_UB>
10.604

$$$$
