CHEMBL5422020
 OpenBabel10172500293D

 24 25  0  0  0  0  0  0  0  0999 V2000
  144.7800  140.3730  153.9660 N   0  0  0  0  0  0  0  0  0  0  0  0
  146.1330  140.6030  154.0470 C   0  0  0  0  0  0  0  0  0  0  0  0
  146.9410  139.7560  154.4150 O   0  0  0  0  0  0  0  0  0  0  0  0
  144.1850  141.1090  153.6940 H   0  0  0  0  0  0  0  0  0  0  0  0
  144.2050  139.0810  154.2680 C   0  0  0  0  0  2  0  0  0  0  0  0
  144.4020  136.8960  151.1240 C   0  0  0  0  0  0  0  0  0  0  0  0
  144.7700  137.6560  152.2420 C   0  0  0  0  0  3  0  0  0  0  0  0
  143.8030  138.3100  153.0310 C   0  0  0  0  0  0  0  0  0  0  0  0
  142.4500  138.1800  152.6840 C   0  0  0  0  0  3  0  0  0  0  0  0
  142.0700  137.4190  151.5780 C   0  0  0  0  0  3  0  0  0  0  0  0
  143.0440  136.7870  150.8060 C   0  0  0  0  0  0  0  0  0  0  0  0
  146.5530  135.9050  150.8370 C   0  0  0  0  0  1  0  0  0  0  0  0
  145.2740  136.2270  150.3070 O   0  0  0  0  0  0  0  0  0  0  0  0
  142.6660  136.0400  149.7190 O   0  0  0  0  0  0  0  0  0  0  0  0
  143.1070  135.2350  149.5290 H   0  0  0  0  0  0  0  0  0  0  0  0
  146.5410  142.0110  153.6600 C   0  0  0  0  0  2  0  0  0  0  0  0
  146.1780  142.3360  152.2120 C   0  0  0  0  0  2  0  0  0  0  0  0
  146.8490  141.3800  151.2170 C   0  0  0  0  0  2  0  0  0  0  0  0
  145.8400  140.7420  150.3110 C   0  0  0  0  0  0  0  0  0  0  0  0
  144.4630  140.8710  150.3420 C   0  0  0  0  0  3  0  0  0  0  0  0
  143.8240  140.1010  149.3250 C   0  0  0  0  0  3  0  0  0  0  0  0
  144.7440  139.4250  148.5640 C   0  0  0  0  0  0  0  0  0  0  0  0
  144.2500  138.1910  146.9990 I   0  0  0  0  0  0  0  0  0  0  0  0
  146.3450  139.7040  149.0420 S   0  0  0  0  0  0  0  0  0  0  0  0
  1  2  1  0  0  0  0
  1  5  1  0  0  0  0
  2  3  2  0  0  0  0
  4  1  1  0  0  0  0
  6  7  1  0  0  0  0
  7  8  2  0  0  0  0
  8  5  1  0  0  0  0
  9  8  1  0  0  0  0
 10  9  2  0  0  0  0
 11  6  2  0  0  0  0
 11 10  1  0  0  0  0
 13 12  1  0  0  0  0
 13  6  1  0  0  0  0
 14 11  1  0  0  0  0
 15 14  1  0  0  0  0
 16  2  1  0  0  0  0
 17 16  1  0  0  0  0
 18 17  1  0  0  0  0
 19 20  2  0  0  0  0
 19 18  1  0  0  0  0
 21 20  1  0  0  0  0
 22 24  1  0  0  0  0
 22 21  2  0  0  0  0
 23 22  1  0  0  0  0
 24 19  1  0  0  0  0
M  END
>  <MODEL>
1

>  <REMARK>
 VINA RESULT:    -6.841      0.000      0.000
 INTER + INTRA:         -10.345
 INTER:                  -8.318
 INTRA:                  -2.027
 UNBOUND:                -0.504
  Name = CHEMBL5422020
  9 active torsions:
  status: ('A' for Active; 'I' for Inactive)
    1  A    between atoms: C_1  and  O_2
    2  A    between atoms: O_2  and  C_3
    3  A    between atoms: C_5  and  C_6
    4  A    between atoms: C_6  and  N_7
    5  A    between atoms: C_8  and  C_10
    6  A    between atoms: C_10  and  C_11
    7  A    between atoms: C_11  and  C_12
    8  A    between atoms: C_12  and  C_13
    9  A    between atoms: C_21  and  O_22
                            x       y       z     vdW  Elec       q    Type
                         _______ _______ _______ _____ _____    ______ ____

>  <TORSDO>
F 8

>  <SCORE>
-6.841

>  <RMSD_LB>
0.000

>  <RMSD_UB>
0.000

$$$$
CHEMBL5422020
 OpenBabel10172500293D

 24 25  0  0  0  0  0  0  0  0999 V2000
  138.3850  137.3470  151.4970 N   0  0  0  0  0  0  0  0  0  0  0  0
  139.6290  137.2020  150.9320 C   0  0  0  0  0  0  0  0  0  0  0  0
  139.8130  136.7210  149.8180 O   0  0  0  0  0  0  0  0  0  0  0  0
  138.3140  137.7110  152.4100 H   0  0  0  0  0  0  0  0  0  0  0  0
  137.1770  136.9810  150.7910 C   0  0  0  0  0  2  0  0  0  0  0  0
  134.6430  134.2480  151.6840 C   0  0  0  0  0  0  0  0  0  0  0  0
  135.4380  135.1370  150.9490 C   0  0  0  0  0  3  0  0  0  0  0  0
  136.2810  136.0650  151.5920 C   0  0  0  0  0  0  0  0  0  0  0  0
  136.3210  136.0800  152.9940 C   0  0  0  0  0  3  0  0  0  0  0  0
  135.5400  135.1940  153.7370 C   0  0  0  0  0  3  0  0  0  0  0  0
  134.7070  134.2890  153.0810 C   0  0  0  0  0  0  0  0  0  0  0  0
  132.6660  133.7890  150.4300 C   0  0  0  0  0  1  0  0  0  0  0  0
  133.8010  133.3140  151.1410 O   0  0  0  0  0  0  0  0  0  0  0  0
  133.9410  133.4190  153.8150 O   0  0  0  0  0  0  0  0  0  0  0  0
  133.0580  133.6440  154.0350 H   0  0  0  0  0  0  0  0  0  0  0  0
  140.7660  137.6720  151.8180 C   0  0  0  0  0  2  0  0  0  0  0  0
  140.2920  138.6580  152.8850 C   0  0  0  0  0  2  0  0  0  0  0  0
  140.6170  138.1760  154.3050 C   0  0  0  0  0  2  0  0  0  0  0  0
  139.3810  138.0970  155.1490 C   0  0  0  0  0  0  0  0  0  0  0  0
  138.1070  138.5350  154.8380 C   0  0  0  0  0  3  0  0  0  0  0  0
  137.1810  138.3020  155.8990 C   0  0  0  0  0  3  0  0  0  0  0  0
  137.7940  137.6950  156.9670 C   0  0  0  0  0  0  0  0  0  0  0  0
  136.8260  137.1930  158.7070 I   0  0  0  0  0  0  0  0  0  0  0  0
  139.4420  137.3970  156.7140 S   0  0  0  0  0  0  0  0  0  0  0  0
  1  4  1  0  0  0  0
  2  1  1  0  0  0  0
  2 16  1  0  0  0  0
  3  2  2  0  0  0  0
  5  1  1  0  0  0  0
  5  8  1  0  0  0  0
  6 11  1  0  0  0  0
  7  8  1  0  0  0  0
  7  6  2  0  0  0  0
  8  9  2  0  0  0  0
  9 10  1  0  0  0  0
 11 10  2  0  0  0  0
 11 14  1  0  0  0  0
 12 13  1  0  0  0  0
 13  6  1  0  0  0  0
 14 15  1  0  0  0  0
 16 17  1  0  0  0  0
 17 18  1  0  0  0  0
 18 19  1  0  0  0  0
 19 24  1  0  0  0  0
 20 19  2  0  0  0  0
 20 21  1  0  0  0  0
 21 22  2  0  0  0  0
 22 23  1  0  0  0  0
 24 22  1  0  0  0  0
M  END
>  <MODEL>
2

>  <REMARK>
 VINA RESULT:    -6.831      7.159      9.439
 INTER + INTRA:         -10.331
 INTER:                  -9.233
 INTRA:                  -1.098
 UNBOUND:                -0.504
  Name = CHEMBL5422020
  9 active torsions:
  status: ('A' for Active; 'I' for Inactive)
    1  A    between atoms: C_1  and  O_2
    2  A    between atoms: O_2  and  C_3
    3  A    between atoms: C_5  and  C_6
    4  A    between atoms: C_6  and  N_7
    5  A    between atoms: C_8  and  C_10
    6  A    between atoms: C_10  and  C_11
    7  A    between atoms: C_11  and  C_12
    8  A    between atoms: C_12  and  C_13
    9  A    between atoms: C_21  and  O_22
                            x       y       z     vdW  Elec       q    Type
                         _______ _______ _______ _____ _____    ______ ____

>  <TORSDO>
F 8

>  <SCORE>
-6.831

>  <RMSD_LB>
7.159

>  <RMSD_UB>
9.439

$$$$
CHEMBL5422020
 OpenBabel10172500293D

 24 25  0  0  0  0  0  0  0  0999 V2000
  144.8020  140.3250  154.2810 N   0  0  0  0  0  0  0  0  0  0  0  0
  146.1240  140.6610  154.1150 C   0  0  0  0  0  0  0  0  0  0  0  0
  147.0470  139.8660  154.2640 O   0  0  0  0  0  0  0  0  0  0  0  0
  144.1140  141.0220  154.1780 H   0  0  0  0  0  0  0  0  0  0  0  0
  144.3910  138.9760  154.6030 C   0  0  0  0  0  2  0  0  0  0  0  0
  140.5840  138.7770  154.2080 C   0  0  0  0  0  0  0  0  0  0  0  0
  141.8550  139.0470  154.7310 C   0  0  0  0  0  3  0  0  0  0  0  0
  143.0230  138.6310  154.0610 C   0  0  0  0  0  0  0  0  0  0  0  0
  142.8940  137.9440  152.8450 C   0  0  0  0  0  3  0  0  0  0  0  0
  141.6340  137.6770  152.3100 C   0  0  0  0  0  3  0  0  0  0  0  0
  140.4910  138.0900  152.9930 C   0  0  0  0  0  0  0  0  0  0  0  0
  138.8080  138.2380  155.7080 C   0  0  0  0  0  1  0  0  0  0  0  0
  139.4000  139.1480  154.7900 O   0  0  0  0  0  0  0  0  0  0  0  0
  139.2530  137.8260  152.4630 O   0  0  0  0  0  0  0  0  0  0  0  0
  138.5110  138.3310  152.7330 H   0  0  0  0  0  0  0  0  0  0  0  0
  146.3480  142.1150  153.7500 C   0  0  0  0  0  2  0  0  0  0  0  0
  146.7090  142.2870  152.2740 C   0  0  0  0  0  2  0  0  0  0  0  0
  145.4710  142.5070  151.3960 C   0  0  0  0  0  2  0  0  0  0  0  0
  145.2010  141.3160  150.5270 C   0  0  0  0  0  0  0  0  0  0  0  0
  144.0340  140.5840  150.4220 C   0  0  0  0  0  3  0  0  0  0  0  0
  144.1530  139.5030  149.4970 C   0  0  0  0  0  3  0  0  0  0  0  0
  145.4060  139.4670  148.9380 C   0  0  0  0  0  0  0  0  0  0  0  0
  146.0060  138.0650  147.5630 I   0  0  0  0  0  0  0  0  0  0  0  0
  146.4250  140.7010  149.4950 S   0  0  0  0  0  0  0  0  0  0  0  0
  1  5  1  0  0  0  0
  2  3  2  0  0  0  0
  2  1  1  0  0  0  0
  4  1  1  0  0  0  0
  6  7  1  0  0  0  0
  6 13  1  0  0  0  0
  8  5  1  0  0  0  0
  8  7  2  0  0  0  0
  9  8  1  0  0  0  0
 10  9  2  0  0  0  0
 10 11  1  0  0  0  0
 11  6  2  0  0  0  0
 13 12  1  0  0  0  0
 14 15  1  0  0  0  0
 14 11  1  0  0  0  0
 16  2  1  0  0  0  0
 17 16  1  0  0  0  0
 18 17  1  0  0  0  0
 19 18  1  0  0  0  0
 20 19  2  0  0  0  0
 21 20  1  0  0  0  0
 22 24  1  0  0  0  0
 22 21  2  0  0  0  0
 23 22  1  0  0  0  0
 24 19  1  0  0  0  0
M  END
>  <MODEL>
3

>  <REMARK>
 VINA RESULT:    -6.804      2.311      3.340
 INTER + INTRA:         -10.291
 INTER:                  -9.301
 INTRA:                  -0.990
 UNBOUND:                -0.504
  Name = CHEMBL5422020
  9 active torsions:
  status: ('A' for Active; 'I' for Inactive)
    1  A    between atoms: C_1  and  O_2
    2  A    between atoms: O_2  and  C_3
    3  A    between atoms: C_5  and  C_6
    4  A    between atoms: C_6  and  N_7
    5  A    between atoms: C_8  and  C_10
    6  A    between atoms: C_10  and  C_11
    7  A    between atoms: C_11  and  C_12
    8  A    between atoms: C_12  and  C_13
    9  A    between atoms: C_21  and  O_22
                            x       y       z     vdW  Elec       q    Type
                         _______ _______ _______ _____ _____    ______ ____

>  <TORSDO>
F 8

>  <SCORE>
-6.804

>  <RMSD_LB>
2.311

>  <RMSD_UB>
3.340

$$$$
CHEMBL5422020
 OpenBabel10172500293D

 24 25  0  0  0  0  0  0  0  0999 V2000
  144.6690  140.3060  150.2720 N   0  0  0  0  0  0  0  0  0  0  0  0
  145.5280  139.7450  149.3580 C   0  0  0  0  0  0  0  0  0  0  0  0
  146.5840  140.2660  149.0150 O   0  0  0  0  0  0  0  0  0  0  0  0
  143.8210  139.8480  150.4760 H   0  0  0  0  0  0  0  0  0  0  0  0
  144.9730  141.5510  150.9430 C   0  0  0  0  0  2  0  0  0  0  0  0
  146.6780  140.2310  154.1110 C   0  0  0  0  0  0  0  0  0  0  0  0
  145.7430  140.4290  153.0880 C   0  0  0  0  0  3  0  0  0  0  0  0
  145.9600  141.3850  152.0750 C   0  0  0  0  0  0  0  0  0  0  0  0
  147.1440  142.1370  152.1010 C   0  0  0  0  0  3  0  0  0  0  0  0
  148.0870  141.9440  153.1110 C   0  0  0  0  0  3  0  0  0  0  0  0
  147.8480  140.9980  154.1080 C   0  0  0  0  0  0  0  0  0  0  0  0
  146.6270  137.9450  154.7930 C   0  0  0  0  0  1  0  0  0  0  0  0
  146.5480  139.3230  155.1290 O   0  0  0  0  0  0  0  0  0  0  0  0
  148.7780  140.8110  155.0990 O   0  0  0  0  0  0  0  0  0  0  0  0
  149.5500  140.3080  154.9280 H   0  0  0  0  0  0  0  0  0  0  0  0
  145.0440  138.4250  148.7900 C   0  0  0  0  0  2  0  0  0  0  0  0
  145.1320  137.2930  149.8130 C   0  0  0  0  0  2  0  0  0  0  0  0
  143.8600  136.4340  149.8380 C   0  0  0  0  0  2  0  0  0  0  0  0
  142.8850  136.9370  150.8600 C   0  0  0  0  0  0  0  0  0  0  0  0
  141.5120  137.0540  150.7430 C   0  0  0  0  0  3  0  0  0  0  0  0
  140.9120  137.5870  151.9230 C   0  0  0  0  0  3  0  0  0  0  0  0
  141.8560  137.8460  152.8840 C   0  0  0  0  0  0  0  0  0  0  0  0
  141.4220  138.6310  154.7320 I   0  0  0  0  0  0  0  0  0  0  0  0
  143.4320  137.4570  152.4000 S   0  0  0  0  0  0  0  0  0  0  0  0
  1  4  1  0  0  0  0
  1  5  1  0  0  0  0
  2  1  1  0  0  0  0
  3  2  2  0  0  0  0
  5  8  1  0  0  0  0
  6 13  1  0  0  0  0
  7  6  2  0  0  0  0
  8  9  2  0  0  0  0
  8  7  1  0  0  0  0
  9 10  1  0  0  0  0
 10 11  2  0  0  0  0
 11  6  1  0  0  0  0
 11 14  1  0  0  0  0
 12 13  1  0  0  0  0
 15 14  1  0  0  0  0
 16  2  1  0  0  0  0
 16 17  1  0  0  0  0
 17 18  1  0  0  0  0
 18 19  1  0  0  0  0
 19 24  1  0  0  0  0
 20 19  2  0  0  0  0
 20 21  1  0  0  0  0
 21 22  2  0  0  0  0
 22 23  1  0  0  0  0
 24 22  1  0  0  0  0
M  END
>  <MODEL>
4

>  <REMARK>
 VINA RESULT:    -6.647      2.998      5.732
 INTER + INTRA:         -10.065
 INTER:                  -9.028
 INTRA:                  -1.037
 UNBOUND:                -0.504
  Name = CHEMBL5422020
  9 active torsions:
  status: ('A' for Active; 'I' for Inactive)
    1  A    between atoms: C_1  and  O_2
    2  A    between atoms: O_2  and  C_3
    3  A    between atoms: C_5  and  C_6
    4  A    between atoms: C_6  and  N_7
    5  A    between atoms: C_8  and  C_10
    6  A    between atoms: C_10  and  C_11
    7  A    between atoms: C_11  and  C_12
    8  A    between atoms: C_12  and  C_13
    9  A    between atoms: C_21  and  O_22
                            x       y       z     vdW  Elec       q    Type
                         _______ _______ _______ _____ _____    ______ ____

>  <TORSDO>
F 8

>  <SCORE>
-6.647

>  <RMSD_LB>
2.998

>  <RMSD_UB>
5.732

$$$$
CHEMBL5422020
 OpenBabel10172500293D

 24 25  0  0  0  0  0  0  0  0999 V2000
  135.5290  136.1590  152.0440 N   0  0  0  0  0  0  0  0  0  0  0  0
  135.2050  134.8250  151.9630 C   0  0  0  0  0  0  0  0  0  0  0  0
  136.0410  133.9300  151.8870 O   0  0  0  0  0  0  0  0  0  0  0  0
  134.8050  136.8260  152.0680 H   0  0  0  0  0  0  0  0  0  0  0  0
  136.9020  136.6100  152.0950 C   0  0  0  0  0  2  0  0  0  0  0  0
  138.8140  138.2980  154.9560 C   0  0  0  0  0  0  0  0  0  0  0  0
  138.4350  137.8780  153.6750 C   0  0  0  0  0  3  0  0  0  0  0  0
  137.3400  137.0110  153.4850 C   0  0  0  0  0  0  0  0  0  0  0  0
  136.6200  136.5780  154.6090 C   0  0  0  0  0  3  0  0  0  0  0  0
  136.9840  136.9960  155.8890 C   0  0  0  0  0  3  0  0  0  0  0  0
  138.0760  137.8470  156.0550 C   0  0  0  0  0  0  0  0  0  0  0  0
  141.1740  138.6480  154.9980 C   0  0  0  0  0  1  0  0  0  0  0  0
  139.8610  139.1390  155.2290 O   0  0  0  0  0  0  0  0  0  0  0  0
  138.4300  138.2550  157.3160 O   0  0  0  0  0  0  0  0  0  0  0  0
  139.3350  138.3330  157.5460 H   0  0  0  0  0  0  0  0  0  0  0  0
  133.7130  134.5550  151.9520 C   0  0  0  0  0  2  0  0  0  0  0  0
  132.9880  135.3800  150.8890 C   0  0  0  0  0  2  0  0  0  0  0  0
  132.8680  134.6300  149.5560 C   0  0  0  0  0  2  0  0  0  0  0  0
  133.0810  135.5510  148.3930 C   0  0  0  0  0  0  0  0  0  0  0  0
  132.6200  136.8450  148.2350 C   0  0  0  0  0  3  0  0  0  0  0  0
  133.0120  137.4100  146.9840 C   0  0  0  0  0  3  0  0  0  0  0  0
  133.7560  136.5200  146.2500 C   0  0  0  0  0  0  0  0  0  0  0  0
  134.5110  136.9260  144.3840 I   0  0  0  0  0  0  0  0  0  0  0  0
  133.9950  135.0380  147.0350 S   0  0  0  0  0  0  0  0  0  0  0  0
  1  4  1  0  0  0  0
  1  5  1  0  0  0  0
  2  1  1  0  0  0  0
  3  2  2  0  0  0  0
  5  8  1  0  0  0  0
  6 13  1  0  0  0  0
  6 11  1  0  0  0  0
  7  6  2  0  0  0  0
  8  7  1  0  0  0  0
  8  9  2  0  0  0  0
  9 10  1  0  0  0  0
 10 11  2  0  0  0  0
 11 14  1  0  0  0  0
 12 13  1  0  0  0  0
 14 15  1  0  0  0  0
 16  2  1  0  0  0  0
 17 16  1  0  0  0  0
 18 17  1  0  0  0  0
 19 18  1  0  0  0  0
 20 19  2  0  0  0  0
 21 20  1  0  0  0  0
 22 21  2  0  0  0  0
 22 24  1  0  0  0  0
 23 22  1  0  0  0  0
 24 19  1  0  0  0  0
M  END
>  <MODEL>
5

>  <REMARK>
 VINA RESULT:    -6.488      8.233     10.760
 INTER + INTRA:          -9.836
 INTER:                  -9.267
 INTRA:                  -0.570
 UNBOUND:                -0.504
  Name = CHEMBL5422020
  9 active torsions:
  status: ('A' for Active; 'I' for Inactive)
    1  A    between atoms: C_1  and  O_2
    2  A    between atoms: O_2  and  C_3
    3  A    between atoms: C_5  and  C_6
    4  A    between atoms: C_6  and  N_7
    5  A    between atoms: C_8  and  C_10
    6  A    between atoms: C_10  and  C_11
    7  A    between atoms: C_11  and  C_12
    8  A    between atoms: C_12  and  C_13
    9  A    between atoms: C_21  and  O_22
                            x       y       z     vdW  Elec       q    Type
                         _______ _______ _______ _____ _____    ______ ____

>  <TORSDO>
F 8

>  <SCORE>
-6.488

>  <RMSD_LB>
8.233

>  <RMSD_UB>
10.760

$$$$
CHEMBL5422020
 OpenBabel10172500293D

 24 25  0  0  0  0  0  0  0  0999 V2000
  138.0270  137.8960  153.0560 N   0  0  0  0  0  0  0  0  0  0  0  0
  138.9610  137.7770  152.0540 C   0  0  0  0  0  0  0  0  0  0  0  0
  140.1420  137.5190  152.2600 O   0  0  0  0  0  0  0  0  0  0  0  0
  137.1010  138.1390  152.8210 H   0  0  0  0  0  0  0  0  0  0  0  0
  138.3630  137.6750  154.4450 C   0  0  0  0  0  2  0  0  0  0  0  0
  135.3190  135.4560  155.1540 C   0  0  0  0  0  0  0  0  0  0  0  0
  136.2580  136.2540  154.4880 C   0  0  0  0  0  3  0  0  0  0  0  0
  137.3230  136.8620  155.1820 C   0  0  0  0  0  0  0  0  0  0  0  0
  137.4370  136.6470  156.5630 C   0  0  0  0  0  3  0  0  0  0  0  0
  136.5140  135.8480  157.2370 C   0  0  0  0  0  3  0  0  0  0  0  0
  135.4630  135.2620  156.5320 C   0  0  0  0  0  0  0  0  0  0  0  0
  134.5450  133.9090  153.5110 C   0  0  0  0  0  1  0  0  0  0  0  0
  134.2590  134.8260  154.5580 O   0  0  0  0  0  0  0  0  0  0  0  0
  134.5560  134.4760  157.1980 O   0  0  0  0  0  0  0  0  0  0  0  0
  134.4590  134.5580  158.1270 H   0  0  0  0  0  0  0  0  0  0  0  0
  138.4050  138.0170  150.6640 C   0  0  0  0  0  2  0  0  0  0  0  0
  138.2420  136.7150  149.8790 C   0  0  0  0  0  2  0  0  0  0  0  0
  137.1720  135.8010  150.4890 C   0  0  0  0  0  2  0  0  0  0  0  0
  135.8260  136.0590  149.8820 C   0  0  0  0  0  0  0  0  0  0  0  0
  134.5870  135.9860  150.4910 C   0  0  0  0  0  3  0  0  0  0  0  0
  133.5220  136.2880  149.5890 C   0  0  0  0  0  3  0  0  0  0  0  0
  134.0010  136.5800  148.3370 C   0  0  0  0  0  0  0  0  0  0  0  0
  132.8060  137.0590  146.7380 I   0  0  0  0  0  0  0  0  0  0  0  0
  135.6910  136.5060  148.2310 S   0  0  0  0  0  0  0  0  0  0  0  0
  1  5  1  0  0  0  0
  2  3  2  0  0  0  0
  2  1  1  0  0  0  0
  4  1  1  0  0  0  0
  5  8  1  0  0  0  0
  6 11  1  0  0  0  0
  7  6  2  0  0  0  0
  7  8  1  0  0  0  0
  8  9  2  0  0  0  0
  9 10  1  0  0  0  0
 11 14  1  0  0  0  0
 11 10  2  0  0  0  0
 12 13  1  0  0  0  0
 13  6  1  0  0  0  0
 14 15  1  0  0  0  0
 16  2  1  0  0  0  0
 17 18  1  0  0  0  0
 17 16  1  0  0  0  0
 19 18  1  0  0  0  0
 19 20  2  0  0  0  0
 21 20  1  0  0  0  0
 22 21  2  0  0  0  0
 23 22  1  0  0  0  0
 24 22  1  0  0  0  0
 24 19  1  0  0  0  0
M  END
>  <MODEL>
6

>  <REMARK>
 VINA RESULT:    -6.382      7.631      9.815
 INTER + INTRA:          -9.685
 INTER:                  -8.819
 INTRA:                  -0.866
 UNBOUND:                -0.504
  Name = CHEMBL5422020
  9 active torsions:
  status: ('A' for Active; 'I' for Inactive)
    1  A    between atoms: C_1  and  O_2
    2  A    between atoms: O_2  and  C_3
    3  A    between atoms: C_5  and  C_6
    4  A    between atoms: C_6  and  N_7
    5  A    between atoms: C_8  and  C_10
    6  A    between atoms: C_10  and  C_11
    7  A    between atoms: C_11  and  C_12
    8  A    between atoms: C_12  and  C_13
    9  A    between atoms: C_21  and  O_22
                            x       y       z     vdW  Elec       q    Type
                         _______ _______ _______ _____ _____    ______ ____

>  <TORSDO>
F 8

>  <SCORE>
-6.382

>  <RMSD_LB>
7.631

>  <RMSD_UB>
9.815

$$$$
CHEMBL5422020
 OpenBabel10172500293D

 24 25  0  0  0  0  0  0  0  0999 V2000
  139.5350  137.7080  155.3900 N   0  0  0  0  0  0  0  0  0  0  0  0
  138.1720  137.8790  155.3510 C   0  0  0  0  0  0  0  0  0  0  0  0
  137.6310  138.9020  154.9430 O   0  0  0  0  0  0  0  0  0  0  0  0
  139.9020  136.8730  155.7620 H   0  0  0  0  0  0  0  0  0  0  0  0
  140.4470  138.7180  154.8990 C   0  0  0  0  0  2  0  0  0  0  0  0
  143.5140  137.6400  152.8700 C   0  0  0  0  0  0  0  0  0  0  0  0
  142.7110  138.1410  153.9020 C   0  0  0  0  0  3  0  0  0  0  0  0
  141.3110  138.2290  153.7600 C   0  0  0  0  0  0  0  0  0  0  0  0
  140.7270  137.7940  152.5620 C   0  0  0  0  0  3  0  0  0  0  0  0
  141.5160  137.2850  151.5300 C   0  0  0  0  0  3  0  0  0  0  0  0
  142.8990  137.2140  151.6880 C   0  0  0  0  0  0  0  0  0  0  0  0
  145.4160  136.6050  153.8750 C   0  0  0  0  0  1  0  0  0  0  0  0
  144.8780  137.5170  152.9260 O   0  0  0  0  0  0  0  0  0  0  0  0
  143.6720  136.7130  150.6710 O   0  0  0  0  0  0  0  0  0  0  0  0
  143.8300  135.7900  150.6140 H   0  0  0  0  0  0  0  0  0  0  0  0
  137.3880  136.6950  155.8810 C   0  0  0  0  0  2  0  0  0  0  0  0
  135.9960  136.6020  155.2560 C   0  0  0  0  0  2  0  0  0  0  0  0
  135.5430  135.1490  155.0630 C   0  0  0  0  0  2  0  0  0  0  0  0
  134.9080  134.9510  153.7200 C   0  0  0  0  0  0  0  0  0  0  0  0
  133.5800  135.1160  153.3710 C   0  0  0  0  0  3  0  0  0  0  0  0
  133.3410  134.8230  151.9940 C   0  0  0  0  0  3  0  0  0  0  0  0
  134.5000  134.4520  151.3590 C   0  0  0  0  0  0  0  0  0  0  0  0
  134.6010  133.9350  149.3750 I   0  0  0  0  0  0  0  0  0  0  0  0
  135.8550  134.4580  152.3770 S   0  0  0  0  0  0  0  0  0  0  0  0
  1  4  1  0  0  0  0
  2  1  1  0  0  0  0
  2 16  1  0  0  0  0
  3  2  2  0  0  0  0
  5  1  1  0  0  0  0
  6 13  1  0  0  0  0
  6  7  1  0  0  0  0
  8  7  2  0  0  0  0
  8  5  1  0  0  0  0
  9  8  1  0  0  0  0
 10 11  1  0  0  0  0
 10  9  2  0  0  0  0
 11  6  2  0  0  0  0
 13 12  1  0  0  0  0
 14 11  1  0  0  0  0
 15 14  1  0  0  0  0
 17 16  1  0  0  0  0
 18 17  1  0  0  0  0
 19 18  1  0  0  0  0
 20 19  2  0  0  0  0
 21 20  1  0  0  0  0
 22 21  2  0  0  0  0
 22 24  1  0  0  0  0
 23 22  1  0  0  0  0
 24 19  1  0  0  0  0
M  END
>  <MODEL>
7

>  <REMARK>
 VINA RESULT:    -6.327      6.260      8.458
 INTER + INTRA:          -9.606
 INTER:                  -9.051
 INTRA:                  -0.555
 UNBOUND:                -0.504
  Name = CHEMBL5422020
  9 active torsions:
  status: ('A' for Active; 'I' for Inactive)
    1  A    between atoms: C_1  and  O_2
    2  A    between atoms: O_2  and  C_3
    3  A    between atoms: C_5  and  C_6
    4  A    between atoms: C_6  and  N_7
    5  A    between atoms: C_8  and  C_10
    6  A    between atoms: C_10  and  C_11
    7  A    between atoms: C_11  and  C_12
    8  A    between atoms: C_12  and  C_13
    9  A    between atoms: C_21  and  O_22
                            x       y       z     vdW  Elec       q    Type
                         _______ _______ _______ _____ _____    ______ ____

>  <TORSDO>
F 8

>  <SCORE>
-6.327

>  <RMSD_LB>
6.260

>  <RMSD_UB>
8.458

$$$$
CHEMBL5422020
 OpenBabel10172500293D

 24 25  0  0  0  0  0  0  0  0999 V2000
  145.8270  139.7310  149.4550 N   0  0  0  0  0  0  0  0  0  0  0  0
  146.3360  138.6590  148.7610 C   0  0  0  0  0  0  0  0  0  0  0  0
  147.4260  138.6740  148.1990 O   0  0  0  0  0  0  0  0  0  0  0  0
  144.9290  139.6600  149.8540 H   0  0  0  0  0  0  0  0  0  0  0  0
  146.5720  140.9600  149.6160 C   0  0  0  0  0  2  0  0  0  0  0  0
  146.7570  140.8850  153.4430 C   0  0  0  0  0  0  0  0  0  0  0  0
  146.2910  140.7370  152.1300 C   0  0  0  0  0  3  0  0  0  0  0  0
  147.0570  141.1750  151.0310 C   0  0  0  0  0  0  0  0  0  0  0  0
  148.3090  141.7590  151.2720 C   0  0  0  0  0  3  0  0  0  0  0  0
  148.7870  141.9040  152.5740 C   0  0  0  0  0  3  0  0  0  0  0  0
  148.0110  141.4710  153.6480 C   0  0  0  0  0  0  0  0  0  0  0  0
  144.7700  139.9650  154.3910 C   0  0  0  0  0  1  0  0  0  0  0  0
  146.0810  140.4840  154.5660 O   0  0  0  0  0  0  0  0  0  0  0  0
  148.4840  141.6150  154.9280 O   0  0  0  0  0  0  0  0  0  0  0  0
  149.4080  141.6060  155.0890 H   0  0  0  0  0  0  0  0  0  0  0  0
  145.4170  137.4530  148.7320 C   0  0  0  0  0  2  0  0  0  0  0  0
  146.0110  136.2610  149.4820 C   0  0  0  0  0  2  0  0  0  0  0  0
  145.4700  136.1480  150.9140 C   0  0  0  0  0  2  0  0  0  0  0  0
  146.4600  136.6680  151.9110 C   0  0  0  0  0  0  0  0  0  0  0  0
  147.7130  137.2030  151.6700 C   0  0  0  0  0  3  0  0  0  0  0  0
  148.3800  137.5820  152.8740 C   0  0  0  0  0  3  0  0  0  0  0  0
  147.6020  137.3220  153.9740 C   0  0  0  0  0  0  0  0  0  0  0  0
  148.1860  137.7070  155.9050 I   0  0  0  0  0  0  0  0  0  0  0  0
  146.0980  136.6460  153.5870 S   0  0  0  0  0  0  0  0  0  0  0  0
  1  5  1  0  0  0  0
  1  4  1  0  0  0  0
  2  1  1  0  0  0  0
  3  2  2  0  0  0  0
  5  8  1  0  0  0  0
  6 11  1  0  0  0  0
  6 13  1  0  0  0  0
  7  6  2  0  0  0  0
  8  9  2  0  0  0  0
  8  7  1  0  0  0  0
  9 10  1  0  0  0  0
 10 11  2  0  0  0  0
 11 14  1  0  0  0  0
 12 13  1  0  0  0  0
 14 15  1  0  0  0  0
 16  2  1  0  0  0  0
 16 17  1  0  0  0  0
 17 18  1  0  0  0  0
 18 19  1  0  0  0  0
 19 24  1  0  0  0  0
 20 19  2  0  0  0  0
 20 21  1  0  0  0  0
 21 22  2  0  0  0  0
 22 23  1  0  0  0  0
 24 22  1  0  0  0  0
M  END
>  <MODEL>
8

>  <REMARK>
 VINA RESULT:    -6.309      3.455      6.358
 INTER + INTRA:          -9.580
 INTER:                  -7.922
 INTRA:                  -1.658
 UNBOUND:                -0.504
  Name = CHEMBL5422020
  9 active torsions:
  status: ('A' for Active; 'I' for Inactive)
    1  A    between atoms: C_1  and  O_2
    2  A    between atoms: O_2  and  C_3
    3  A    between atoms: C_5  and  C_6
    4  A    between atoms: C_6  and  N_7
    5  A    between atoms: C_8  and  C_10
    6  A    between atoms: C_10  and  C_11
    7  A    between atoms: C_11  and  C_12
    8  A    between atoms: C_12  and  C_13
    9  A    between atoms: C_21  and  O_22
                            x       y       z     vdW  Elec       q    Type
                         _______ _______ _______ _____ _____    ______ ____

>  <TORSDO>
F 8

>  <SCORE>
-6.309

>  <RMSD_LB>
3.455

>  <RMSD_UB>
6.358

$$$$
CHEMBL5422020
 OpenBabel10172500293D

 24 25  0  0  0  0  0  0  0  0999 V2000
  138.3550  137.5470  151.6260 N   0  0  0  0  0  0  0  0  0  0  0  0
  139.6650  137.4480  151.2200 C   0  0  0  0  0  0  0  0  0  0  0  0
  140.0100  136.8980  150.1790 O   0  0  0  0  0  0  0  0  0  0  0  0
  138.1530  137.9730  152.4910 H   0  0  0  0  0  0  0  0  0  0  0  0
  137.2650  137.0420  150.8200 C   0  0  0  0  0  2  0  0  0  0  0  0
  134.7090  134.2960  151.6020 C   0  0  0  0  0  0  0  0  0  0  0  0
  135.5220  135.1970  150.9020 C   0  0  0  0  0  3  0  0  0  0  0  0
  136.3490  136.1130  151.5820 C   0  0  0  0  0  0  0  0  0  0  0  0
  136.3540  136.1040  152.9850 C   0  0  0  0  0  3  0  0  0  0  0  0
  135.5540  135.2060  153.6930 C   0  0  0  0  0  3  0  0  0  0  0  0
  134.7380  134.3130  153.0000 C   0  0  0  0  0  0  0  0  0  0  0  0
  132.6830  133.8490  150.4220 C   0  0  0  0  0  1  0  0  0  0  0  0
  133.8800  133.3720  151.0210 O   0  0  0  0  0  0  0  0  0  0  0  0
  133.9530  133.4310  153.7000 O   0  0  0  0  0  0  0  0  0  0  0  0
  133.0650  133.6530  153.9010 H   0  0  0  0  0  0  0  0  0  0  0  0
  140.6560  138.0640  152.1880 C   0  0  0  0  0  2  0  0  0  0  0  0
  142.0060  137.3480  152.1600 C   0  0  0  0  0  2  0  0  0  0  0  0
  143.0440  138.0990  151.3160 C   0  0  0  0  0  2  0  0  0  0  0  0
  144.1350  138.6640  152.1740 C   0  0  0  0  0  0  0  0  0  0  0  0
  144.7410  138.0860  153.2740 C   0  0  0  0  0  3  0  0  0  0  0  0
  145.7370  138.9310  153.8500 C   0  0  0  0  0  3  0  0  0  0  0  0
  145.8460  140.1110  153.1580 C   0  0  0  0  0  0  0  0  0  0  0  0
  147.1530  141.6140  153.6570 I   0  0  0  0  0  0  0  0  0  0  0  0
  144.7880  140.2150  151.8390 S   0  0  0  0  0  0  0  0  0  0  0  0
  1  4  1  0  0  0  0
  2  1  1  0  0  0  0
  2 16  1  0  0  0  0
  3  2  2  0  0  0  0
  5  8  1  0  0  0  0
  5  1  1  0  0  0  0
  6 11  1  0  0  0  0
  7  8  1  0  0  0  0
  7  6  2  0  0  0  0
  8  9  2  0  0  0  0
  9 10  1  0  0  0  0
 11 10  2  0  0  0  0
 11 14  1  0  0  0  0
 12 13  1  0  0  0  0
 13  6  1  0  0  0  0
 14 15  1  0  0  0  0
 17 16  1  0  0  0  0
 18 17  1  0  0  0  0
 18 19  1  0  0  0  0
 19 20  2  0  0  0  0
 20 21  1  0  0  0  0
 22 23  1  0  0  0  0
 22 21  2  0  0  0  0
 24 19  1  0  0  0  0
 24 22  1  0  0  0  0
M  END
>  <MODEL>
9

>  <REMARK>
 VINA RESULT:    -6.205      5.896      7.941
 INTER + INTRA:          -9.430
 INTER:                  -8.925
 INTRA:                  -0.504
 UNBOUND:                -0.504
  Name = CHEMBL5422020
  9 active torsions:
  status: ('A' for Active; 'I' for Inactive)
    1  A    between atoms: C_1  and  O_2
    2  A    between atoms: O_2  and  C_3
    3  A    between atoms: C_5  and  C_6
    4  A    between atoms: C_6  and  N_7
    5  A    between atoms: C_8  and  C_10
    6  A    between atoms: C_10  and  C_11
    7  A    between atoms: C_11  and  C_12
    8  A    between atoms: C_12  and  C_13
    9  A    between atoms: C_21  and  O_22
                            x       y       z     vdW  Elec       q    Type
                         _______ _______ _______ _____ _____    ______ ____

>  <TORSDO>
F 8

>  <SCORE>
-6.205

>  <RMSD_LB>
5.896

>  <RMSD_UB>
7.941

$$$$
