CHEMBL5284438
 OpenBabel10172500303D

 26 26  0  0  0  0  0  0  0  0999 V2000
  133.2020  134.7330  152.2320 N   0  0  0  0  0  4  0  0  0  0  0  0
  133.2870  133.7280  152.3870 H   0  0  0  0  0  0  0  0  0  0  0  0
  132.6680  135.1730  152.9810 H   0  0  0  0  0  0  0  0  0  0  0  0
  132.4970  134.9620  150.9690 C   0  0  0  0  0  2  0  0  0  0  0  0
  134.3670  133.0080  147.6010 C   0  0  0  0  0  0  0  0  0  0  0  0
  134.1580  132.3220  148.8080 C   0  0  0  0  0  3  0  0  0  0  0  0
  133.5470  132.9430  149.8910 C   0  0  0  0  0  3  0  0  0  0  0  0
  133.1740  134.2850  149.8110 C   0  0  0  0  0  0  0  0  0  0  0  0
  133.3820  134.9750  148.6130 C   0  0  0  0  0  3  0  0  0  0  0  0
  133.9460  134.3440  147.4960 C   0  0  0  0  0  0  0  0  0  0  0  0
  136.4620  132.4840  146.6420 C   0  0  0  0  0  1  0  0  0  0  0  0
  135.0420  132.4300  146.5570 O   0  0  0  0  0  0  0  0  0  0  0  0
  134.0380  135.1650  146.4010 O   0  0  0  0  0  0  0  0  0  0  0  0
  135.1390  136.0630  146.3730 C   0  0  0  0  0  1  0  0  0  0  0  0
  134.5410  135.3250  152.2180 C   0  0  0  0  0  2  0  0  0  0  0  0
  135.3750  134.8150  153.3920 C   0  0  0  0  0  2  0  0  0  0  0  0
  134.5020  134.4100  154.5650 C   0  0  0  0  0  2  0  0  0  0  0  0
  135.1020  134.9080  155.8780 C   0  0  0  0  0  2  0  0  0  0  0  0
  135.9230  136.1650  155.6250 C   0  0  0  0  0  2  0  0  0  0  0  0
  137.1290  136.2530  156.5530 C   0  0  0  0  0  2  0  0  0  0  0  0
  137.1330  137.5570  157.3170 C   0  0  0  0  0  0  0  0  0  0  0  0
  136.7130  138.6260  156.8710 O   0  0  0  0  0  0  0  0  0  0  0  0
  137.6670  137.4660  158.5720 N   0  0  0  0  0  0  0  0  0  0  0  0
  138.0210  136.6170  158.9240 H   0  0  0  0  0  0  0  0  0  0  0  0
  137.6820  138.6540  159.3380 O   0  0  0  0  0  0  0  0  0  0  0  0
  137.0110  138.5980  160.0360 H   0  0  0  0  0  0  0  0  0  0  0  0
  1  2  1  0  0  0  0
  1  3  1  0  0  0  0
  4  1  1  0  0  0  0
  5  6  1  0  0  0  0
  6  7  2  0  0  0  0
  8  7  1  0  0  0  0
  8  4  1  0  0  0  0
  9  8  2  0  0  0  0
 10  5  2  0  0  0  0
 10  9  1  0  0  0  0
 12 11  1  0  0  0  0
 12  5  1  0  0  0  0
 13 10  1  0  0  0  0
 14 13  1  0  0  0  0
 15  1  1  0  0  0  0
 15 16  1  0  0  0  0
 16 17  1  0  0  0  0
 17 18  1  0  0  0  0
 19 18  1  0  0  0  0
 19 20  1  0  0  0  0
 20 21  1  0  0  0  0
 21 23  1  0  0  0  0
 22 21  2  0  0  0  0
 23 24  1  0  0  0  0
 23 25  1  0  0  0  0
 25 26  1  0  0  0  0
M  END
>  <MODEL>
1

>  <REMARK>
 VINA RESULT:    -5.804      0.000      0.000
 INTER + INTRA:         -10.909
 INTER:                 -10.256
 INTRA:                  -0.653
 UNBOUND:                -1.203
  Name = CHEMBL5284438
  14 active torsions:
  status: ('A' for Active; 'I' for Inactive)
    1  A    between atoms: C_1  and  O_2
    2  A    between atoms: O_2  and  C_3
    3  A    between atoms: C_6  and  C_7
    4  A    between atoms: C_7  and  N_8
    5  A    between atoms: N_8  and  C_9
    6  A    between atoms: C_9  and  C_10
    7  A    between atoms: C_10  and  C_11
    8  A    between atoms: C_11  and  C_12
    9  A    between atoms: C_12  and  C_13
   10  A    between atoms: C_13  and  C_14
   11  A    between atoms: C_14  and  C_15
   12  A    between atoms: N_17  and  O_18
   13  A    between atoms: C_20  and  O_21
   14  A    between atoms: O_21  and  C_22
                            x       y       z     vdW  Elec       q    Type
                         _______ _______ _______ _____ _____    ______ ____

>  <TORSDO>
F 12

>  <SCORE>
-5.804

>  <RMSD_LB>
0.000

>  <RMSD_UB>
0.000

$$$$
CHEMBL5284438
 OpenBabel10172500303D

 26 26  0  0  0  0  0  0  0  0999 V2000
  144.0130  140.5080  151.8250 N   0  0  0  0  0  4  0  0  0  0  0  0
  144.3130  140.9270  152.7050 H   0  0  0  0  0  0  0  0  0  0  0  0
  143.1800  140.9740  151.4650 H   0  0  0  0  0  0  0  0  0  0  0  0
  143.6880  139.0990  152.0540 C   0  0  0  0  0  2  0  0  0  0  0  0
  140.2780  138.6980  154.6760 C   0  0  0  0  0  0  0  0  0  0  0  0
  141.5850  138.7260  155.1900 C   0  0  0  0  0  3  0  0  0  0  0  0
  142.6850  138.8670  154.3520 C   0  0  0  0  0  3  0  0  0  0  0  0
  142.5080  138.9310  152.9690 C   0  0  0  0  0  0  0  0  0  0  0  0
  141.2100  138.9000  152.4500 C   0  0  0  0  0  3  0  0  0  0  0  0
  140.0910  138.8160  153.2890 C   0  0  0  0  0  0  0  0  0  0  0  0
  139.4230  137.6040  156.5870 C   0  0  0  0  0  1  0  0  0  0  0  0
  139.1950  138.4780  155.4860 O   0  0  0  0  0  0  0  0  0  0  0  0
  138.9020  138.8360  152.6060 O   0  0  0  0  0  0  0  0  0  0  0  0
  138.2540  137.5830  152.4210 C   0  0  0  0  0  1  0  0  0  0  0  0
  145.0830  140.6610  150.8380 C   0  0  0  0  0  2  0  0  0  0  0  0
  145.5680  142.1090  150.7790 C   0  0  0  0  0  2  0  0  0  0  0  0
  147.0380  142.1920  150.4090 C   0  0  0  0  0  2  0  0  0  0  0  0
  147.8780  141.3350  151.3530 C   0  0  0  0  0  2  0  0  0  0  0  0
  147.9940  142.0230  152.7070 C   0  0  0  0  0  2  0  0  0  0  0  0
  148.2590  141.0270  153.8290 C   0  0  0  0  0  2  0  0  0  0  0  0
  146.9650  140.5330  154.4340 C   0  0  0  0  0  0  0  0  0  0  0  0
  145.8510  140.9840  154.1570 O   0  0  0  0  0  0  0  0  0  0  0  0
  147.1230  139.5300  155.3480 N   0  0  0  0  0  0  0  0  0  0  0  0
  148.0130  139.1810  155.5860 H   0  0  0  0  0  0  0  0  0  0  0  0
  145.9420  139.0190  155.9340 O   0  0  0  0  0  0  0  0  0  0  0  0
  145.1830  139.5520  155.6490 H   0  0  0  0  0  0  0  0  0  0  0  0
  1  4  1  0  0  0  0
  1  2  1  0  0  0  0
  3  1  1  0  0  0  0
  4  8  1  0  0  0  0
  5  6  1  0  0  0  0
  5 12  1  0  0  0  0
  7  6  2  0  0  0  0
  8  7  1  0  0  0  0
  9  8  2  0  0  0  0
  9 10  1  0  0  0  0
 10  5  2  0  0  0  0
 12 11  1  0  0  0  0
 13 10  1  0  0  0  0
 14 13  1  0  0  0  0
 15  1  1  0  0  0  0
 16 15  1  0  0  0  0
 17 16  1  0  0  0  0
 17 18  1  0  0  0  0
 18 19  1  0  0  0  0
 19 20  1  0  0  0  0
 20 21  1  0  0  0  0
 21 23  1  0  0  0  0
 22 21  2  0  0  0  0
 23 24  1  0  0  0  0
 23 25  1  0  0  0  0
 26 25  1  0  0  0  0
M  END
>  <MODEL>
2

>  <REMARK>
 VINA RESULT:    -5.627      8.802     11.446
 INTER + INTRA:         -10.612
 INTER:                  -9.577
 INTRA:                  -1.035
 UNBOUND:                -1.203
  Name = CHEMBL5284438
  14 active torsions:
  status: ('A' for Active; 'I' for Inactive)
    1  A    between atoms: C_1  and  O_2
    2  A    between atoms: O_2  and  C_3
    3  A    between atoms: C_6  and  C_7
    4  A    between atoms: C_7  and  N_8
    5  A    between atoms: N_8  and  C_9
    6  A    between atoms: C_9  and  C_10
    7  A    between atoms: C_10  and  C_11
    8  A    between atoms: C_11  and  C_12
    9  A    between atoms: C_12  and  C_13
   10  A    between atoms: C_13  and  C_14
   11  A    between atoms: C_14  and  C_15
   12  A    between atoms: N_17  and  O_18
   13  A    between atoms: C_20  and  O_21
   14  A    between atoms: O_21  and  C_22
                            x       y       z     vdW  Elec       q    Type
                         _______ _______ _______ _____ _____    ______ ____

>  <TORSDO>
F 12

>  <SCORE>
-5.627

>  <RMSD_LB>
8.802

>  <RMSD_UB>
11.446

$$$$
CHEMBL5284438
 OpenBabel10172500303D

 26 26  0  0  0  0  0  0  0  0999 V2000
  145.0540  140.7940  149.3250 N   0  0  0  0  0  4  0  0  0  0  0  0
  144.5400  141.2480  150.0800 H   0  0  0  0  0  0  0  0  0  0  0  0
  144.6240  140.9920  148.4220 H   0  0  0  0  0  0  0  0  0  0  0  0
  145.0290  139.3450  149.5370 C   0  0  0  0  0  2  0  0  0  0  0  0
  141.0500  137.9490  150.4730 C   0  0  0  0  0  0  0  0  0  0  0  0
  142.1830  137.2210  150.8720 C   0  0  0  0  0  3  0  0  0  0  0  0
  143.4660  137.6720  150.5830 C   0  0  0  0  0  3  0  0  0  0  0  0
  143.6470  138.8400  149.8410 C   0  0  0  0  0  0  0  0  0  0  0  0
  142.5240  139.5670  149.4390 C   0  0  0  0  0  3  0  0  0  0  0  0
  141.2270  139.1530  149.7730 C   0  0  0  0  0  0  0  0  0  0  0  0
  139.2780  136.6110  149.6660 C   0  0  0  0  0  1  0  0  0  0  0  0
  139.7830  137.4720  150.6820 O   0  0  0  0  0  0  0  0  0  0  0  0
  140.2550  140.0110  149.3260 O   0  0  0  0  0  0  0  0  0  0  0  0
  139.5520  140.7460  150.3190 C   0  0  0  0  0  1  0  0  0  0  0  0
  146.4220  141.3130  149.3030 C   0  0  0  0  0  2  0  0  0  0  0  0
  146.5220  142.6220  150.0850 C   0  0  0  0  0  2  0  0  0  0  0  0
  145.5350  142.6620  151.2380 C   0  0  0  0  0  2  0  0  0  0  0  0
  146.2120  142.2330  152.5380 C   0  0  0  0  0  2  0  0  0  0  0  0
  145.7140  140.8530  152.9470 C   0  0  0  0  0  2  0  0  0  0  0  0
  146.8530  139.9520  153.4100 C   0  0  0  0  0  2  0  0  0  0  0  0
  146.5180  139.2830  154.7230 C   0  0  0  0  0  0  0  0  0  0  0  0
  145.3920  138.8910  155.0370 O   0  0  0  0  0  0  0  0  0  0  0  0
  147.5830  139.1540  155.5700 N   0  0  0  0  0  0  0  0  0  0  0  0
  148.4790  139.4850  155.3310 H   0  0  0  0  0  0  0  0  0  0  0  0
  147.3290  138.5210  156.8090 O   0  0  0  0  0  0  0  0  0  0  0  0
  148.1610  138.1900  157.1800 H   0  0  0  0  0  0  0  0  0  0  0  0
  1  4  1  0  0  0  0
  1  2  1  0  0  0  0
  3  1  1  0  0  0  0
  4  8  1  0  0  0  0
  5 12  1  0  0  0  0
  5  6  1  0  0  0  0
  7  6  2  0  0  0  0
  8  7  1  0  0  0  0
  9 10  1  0  0  0  0
  9  8  2  0  0  0  0
 10  5  2  0  0  0  0
 11 12  1  0  0  0  0
 13 10  1  0  0  0  0
 13 14  1  0  0  0  0
 15  1  1  0  0  0  0
 15 16  1  0  0  0  0
 16 17  1  0  0  0  0
 17 18  1  0  0  0  0
 18 19  1  0  0  0  0
 19 20  1  0  0  0  0
 20 21  1  0  0  0  0
 21 22  2  0  0  0  0
 21 23  1  0  0  0  0
 23 25  1  0  0  0  0
 24 23  1  0  0  0  0
 25 26  1  0  0  0  0
M  END
>  <MODEL>
3

>  <REMARK>
 VINA RESULT:    -5.308      9.730     10.869
 INTER + INTRA:         -10.080
 INTER:                  -9.113
 INTRA:                  -0.967
 UNBOUND:                -1.203
  Name = CHEMBL5284438
  14 active torsions:
  status: ('A' for Active; 'I' for Inactive)
    1  A    between atoms: C_1  and  O_2
    2  A    between atoms: O_2  and  C_3
    3  A    between atoms: C_6  and  C_7
    4  A    between atoms: C_7  and  N_8
    5  A    between atoms: N_8  and  C_9
    6  A    between atoms: C_9  and  C_10
    7  A    between atoms: C_10  and  C_11
    8  A    between atoms: C_11  and  C_12
    9  A    between atoms: C_12  and  C_13
   10  A    between atoms: C_13  and  C_14
   11  A    between atoms: C_14  and  C_15
   12  A    between atoms: N_17  and  O_18
   13  A    between atoms: C_20  and  O_21
   14  A    between atoms: O_21  and  C_22
                            x       y       z     vdW  Elec       q    Type
                         _______ _______ _______ _____ _____    ______ ____

>  <TORSDO>
F 12

>  <SCORE>
-5.308

>  <RMSD_LB>
9.730

>  <RMSD_UB>
10.869

$$$$
CHEMBL5284438
 OpenBabel10172500303D

 26 26  0  0  0  0  0  0  0  0999 V2000
  142.9770  138.0620  154.5290 N   0  0  0  0  0  4  0  0  0  0  0  0
  143.6760  137.4980  154.0470 H   0  0  0  0  0  0  0  0  0  0  0  0
  142.7020  137.6270  155.4100 H   0  0  0  0  0  0  0  0  0  0  0  0
  141.7870  138.1710  153.6820 C   0  0  0  0  0  2  0  0  0  0  0  0
  142.4780  136.7100  149.6750 C   0  0  0  0  0  0  0  0  0  0  0  0
  143.5080  136.7150  150.6290 C   0  0  0  0  0  3  0  0  0  0  0  0
  143.2880  137.1730  151.9230 C   0  0  0  0  0  3  0  0  0  0  0  0
  142.0420  137.6880  152.2810 C   0  0  0  0  0  0  0  0  0  0  0  0
  141.0130  137.6900  151.3360 C   0  0  0  0  0  3  0  0  0  0  0  0
  141.2070  137.1780  150.0450 C   0  0  0  0  0  0  0  0  0  0  0  0
  142.8280  134.9350  148.1560 C   0  0  0  0  0  1  0  0  0  0  0  0
  142.7070  136.3370  148.3770 O   0  0  0  0  0  0  0  0  0  0  0  0
  140.0770  137.2280  149.2700 O   0  0  0  0  0  0  0  0  0  0  0  0
  139.1930  136.1180  149.3630 C   0  0  0  0  0  1  0  0  0  0  0  0
  143.5490  139.3760  154.8270 C   0  0  0  0  0  2  0  0  0  0  0  0
  145.0620  139.3720  154.6160 C   0  0  0  0  0  2  0  0  0  0  0  0
  145.4610  140.1980  153.4060 C   0  0  0  0  0  2  0  0  0  0  0  0
  146.5440  141.2080  153.7790 C   0  0  0  0  0  2  0  0  0  0  0  0
  146.6170  142.2990  152.7190 C   0  0  0  0  0  2  0  0  0  0  0  0
  145.4700  142.1990  151.7200 C   0  0  0  0  0  2  0  0  0  0  0  0
  145.9880  142.1540  150.3010 C   0  0  0  0  0  0  0  0  0  0  0  0
  146.9410  142.8180  149.8860 O   0  0  0  0  0  0  0  0  0  0  0  0
  145.2930  141.3100  149.4810 N   0  0  0  0  0  0  0  0  0  0  0  0
  144.5200  140.7940  149.8040 H   0  0  0  0  0  0  0  0  0  0  0  0
  145.7450  141.2180  148.1440 O   0  0  0  0  0  0  0  0  0  0  0  0
  145.4620  142.0050  147.6520 H   0  0  0  0  0  0  0  0  0  0  0  0
  1 15  1  0  0  0  0
  1  3  1  0  0  0  0
  2  1  1  0  0  0  0
  4  1  1  0  0  0  0
  5 10  2  0  0  0  0
  5  6  1  0  0  0  0
  6  7  2  0  0  0  0
  7  8  1  0  0  0  0
  8  4  1  0  0  0  0
  9  8  2  0  0  0  0
 10  9  1  0  0  0  0
 11 12  1  0  0  0  0
 12  5  1  0  0  0  0
 13 14  1  0  0  0  0
 13 10  1  0  0  0  0
 16 15  1  0  0  0  0
 17 18  1  0  0  0  0
 17 16  1  0  0  0  0
 19 18  1  0  0  0  0
 20 19  1  0  0  0  0
 21 20  1  0  0  0  0
 22 21  2  0  0  0  0
 23 24  1  0  0  0  0
 23 21  1  0  0  0  0
 25 23  1  0  0  0  0
 26 25  1  0  0  0  0
M  END
>  <MODEL>
4

>  <REMARK>
 VINA RESULT:    -5.299      9.155     10.607
 INTER + INTRA:         -10.064
 INTER:                  -9.039
 INTRA:                  -1.024
 UNBOUND:                -1.203
  Name = CHEMBL5284438
  14 active torsions:
  status: ('A' for Active; 'I' for Inactive)
    1  A    between atoms: C_1  and  O_2
    2  A    between atoms: O_2  and  C_3
    3  A    between atoms: C_6  and  C_7
    4  A    between atoms: C_7  and  N_8
    5  A    between atoms: N_8  and  C_9
    6  A    between atoms: C_9  and  C_10
    7  A    between atoms: C_10  and  C_11
    8  A    between atoms: C_11  and  C_12
    9  A    between atoms: C_12  and  C_13
   10  A    between atoms: C_13  and  C_14
   11  A    between atoms: C_14  and  C_15
   12  A    between atoms: N_17  and  O_18
   13  A    between atoms: C_20  and  O_21
   14  A    between atoms: O_21  and  C_22
                            x       y       z     vdW  Elec       q    Type
                         _______ _______ _______ _____ _____    ______ ____

>  <TORSDO>
F 12

>  <SCORE>
-5.299

>  <RMSD_LB>
9.155

>  <RMSD_UB>
10.607

$$$$
CHEMBL5284438
 OpenBabel10172500303D

 26 26  0  0  0  0  0  0  0  0999 V2000
  135.0600  134.7050  145.6870 N   0  0  0  0  0  4  0  0  0  0  0  0
  135.9320  134.8930  146.1830 H   0  0  0  0  0  0  0  0  0  0  0  0
  135.0700  135.1290  144.7590 H   0  0  0  0  0  0  0  0  0  0  0  0
  133.9480  135.2860  146.4430 C   0  0  0  0  0  2  0  0  0  0  0  0
  134.0210  133.9900  150.5630 C   0  0  0  0  0  0  0  0  0  0  0  0
  132.8810  133.7970  149.7660 C   0  0  0  0  0  3  0  0  0  0  0  0
  132.8570  134.2020  148.4370 C   0  0  0  0  0  3  0  0  0  0  0  0
  133.9570  134.8580  147.8840 C   0  0  0  0  0  0  0  0  0  0  0  0
  135.0940  135.0560  148.6720 C   0  0  0  0  0  3  0  0  0  0  0  0
  135.1510  134.6010  149.9970 C   0  0  0  0  0  0  0  0  0  0  0  0
  133.6420  134.7180  152.7790 C   0  0  0  0  0  1  0  0  0  0  0  0
  134.0260  133.6680  151.8950 O   0  0  0  0  0  0  0  0  0  0  0  0
  136.3570  134.8500  150.6010 O   0  0  0  0  0  0  0  0  0  0  0  0
  137.2360  135.7380  149.9220 C   0  0  0  0  0  1  0  0  0  0  0  0
  134.9070  133.2590  145.5270 C   0  0  0  0  0  2  0  0  0  0  0  0
  136.1070  132.5150  146.1110 C   0  0  0  0  0  2  0  0  0  0  0  0
  136.5460  131.3700  145.2160 C   0  0  0  0  0  2  0  0  0  0  0  0
  136.1350  131.6340  143.7690 C   0  0  0  0  0  2  0  0  0  0  0  0
  137.3760  131.7360  142.8920 C   0  0  0  0  0  2  0  0  0  0  0  0
  137.3400  132.9700  141.9980 C   0  0  0  0  0  2  0  0  0  0  0  0
  137.1140  134.2240  142.8110 C   0  0  0  0  0  0  0  0  0  0  0  0
  136.1530  134.9830  142.6670 O   0  0  0  0  0  0  0  0  0  0  0  0
  138.0870  134.4710  143.7380 N   0  0  0  0  0  0  0  0  0  0  0  0
  138.8660  133.8760  143.8430 H   0  0  0  0  0  0  0  0  0  0  0  0
  137.9170  135.6240  144.5380 O   0  0  0  0  0  0  0  0  0  0  0  0
  138.6990  135.7470  145.0990 H   0  0  0  0  0  0  0  0  0  0  0  0
  1  2  1  0  0  0  0
  1  4  1  0  0  0  0
  3  1  1  0  0  0  0
  4  8  1  0  0  0  0
  5 12  1  0  0  0  0
  6  5  2  0  0  0  0
  7  6  1  0  0  0  0
  8  7  2  0  0  0  0
  8  9  1  0  0  0  0
  9 10  2  0  0  0  0
 10  5  1  0  0  0  0
 10 13  1  0  0  0  0
 12 11  1  0  0  0  0
 14 13  1  0  0  0  0
 15  1  1  0  0  0  0
 15 16  1  0  0  0  0
 17 16  1  0  0  0  0
 18 17  1  0  0  0  0
 19 18  1  0  0  0  0
 20 21  1  0  0  0  0
 20 19  1  0  0  0  0
 21 23  1  0  0  0  0
 22 21  2  0  0  0  0
 23 24  1  0  0  0  0
 23 25  1  0  0  0  0
 25 26  1  0  0  0  0
M  END
>  <MODEL>
5

>  <REMARK>
 VINA RESULT:    -5.291      4.937      9.276
 INTER + INTRA:         -10.051
 INTER:                  -8.526
 INTRA:                  -1.525
 UNBOUND:                -1.203
  Name = CHEMBL5284438
  14 active torsions:
  status: ('A' for Active; 'I' for Inactive)
    1  A    between atoms: C_1  and  O_2
    2  A    between atoms: O_2  and  C_3
    3  A    between atoms: C_6  and  C_7
    4  A    between atoms: C_7  and  N_8
    5  A    between atoms: N_8  and  C_9
    6  A    between atoms: C_9  and  C_10
    7  A    between atoms: C_10  and  C_11
    8  A    between atoms: C_11  and  C_12
    9  A    between atoms: C_12  and  C_13
   10  A    between atoms: C_13  and  C_14
   11  A    between atoms: C_14  and  C_15
   12  A    between atoms: N_17  and  O_18
   13  A    between atoms: C_20  and  O_21
   14  A    between atoms: O_21  and  C_22
                            x       y       z     vdW  Elec       q    Type
                         _______ _______ _______ _____ _____    ______ ____

>  <TORSDO>
F 12

>  <SCORE>
-5.291

>  <RMSD_LB>
4.937

>  <RMSD_UB>
9.276

$$$$
CHEMBL5284438
 OpenBabel10172500303D

 26 26  0  0  0  0  0  0  0  0999 V2000
  145.4460  142.1520  150.5350 N   0  0  0  0  0  4  0  0  0  0  0  0
  144.5470  142.4800  150.1810 H   0  0  0  0  0  0  0  0  0  0  0  0
  145.4740  141.1330  150.5690 H   0  0  0  0  0  0  0  0  0  0  0  0
  145.6360  142.6610  151.8950 C   0  0  0  0  0  2  0  0  0  0  0  0
  147.6860  139.8780  154.4860 C   0  0  0  0  0  0  0  0  0  0  0  0
  148.3920  140.8800  153.8010 C   0  0  0  0  0  3  0  0  0  0  0  0
  147.7360  141.7850  152.9750 C   0  0  0  0  0  3  0  0  0  0  0  0
  146.3590  141.6790  152.7720 C   0  0  0  0  0  0  0  0  0  0  0  0
  145.6510  140.6810  153.4490 C   0  0  0  0  0  3  0  0  0  0  0  0
  146.2930  139.7990  154.3280 C   0  0  0  0  0  0  0  0  0  0  0  0
  148.6210  137.7100  154.5650 C   0  0  0  0  0  1  0  0  0  0  0  0
  148.3340  138.9320  155.2370 O   0  0  0  0  0  0  0  0  0  0  0  0
  145.4330  138.9150  154.9280 O   0  0  0  0  0  0  0  0  0  0  0  0
  144.8220  137.9500  154.0820 C   0  0  0  0  0  1  0  0  0  0  0  0
  146.5060  142.6080  149.6350 C   0  0  0  0  0  2  0  0  0  0  0  0
  146.6640  141.6550  148.4510 C   0  0  0  0  0  2  0  0  0  0  0  0
  145.9420  140.3410  148.6910 C   0  0  0  0  0  2  0  0  0  0  0  0
  146.9380  139.2390  149.0450 C   0  0  0  0  0  2  0  0  0  0  0  0
  146.6020  138.6630  150.4150 C   0  0  0  0  0  2  0  0  0  0  0  0
  145.1460  138.2230  150.5040 C   0  0  0  0  0  2  0  0  0  0  0  0
  145.0270  136.7180  150.4300 C   0  0  0  0  0  0  0  0  0  0  0  0
  145.6890  135.9330  151.1130 O   0  0  0  0  0  0  0  0  0  0  0  0
  144.1160  136.2760  149.5120 N   0  0  0  0  0  0  0  0  0  0  0  0
  143.6000  136.8990  148.9520 H   0  0  0  0  0  0  0  0  0  0  0  0
  143.9540  134.8740  149.4120 O   0  0  0  0  0  0  0  0  0  0  0  0
  143.2610  134.5840  150.0250 H   0  0  0  0  0  0  0  0  0  0  0  0
  1  3  1  0  0  0  0
  1  4  1  0  0  0  0
  2  1  1  0  0  0  0
  4  8  1  0  0  0  0
  5 12  1  0  0  0  0
  6  5  2  0  0  0  0
  7  6  1  0  0  0  0
  8  7  2  0  0  0  0
  8  9  1  0  0  0  0
  9 10  2  0  0  0  0
 10  5  1  0  0  0  0
 10 13  1  0  0  0  0
 11 12  1  0  0  0  0
 14 13  1  0  0  0  0
 15  1  1  0  0  0  0
 16 17  1  0  0  0  0
 16 15  1  0  0  0  0
 17 18  1  0  0  0  0
 18 19  1  0  0  0  0
 19 20  1  0  0  0  0
 21 20  1  0  0  0  0
 21 22  2  0  0  0  0
 23 21  1  0  0  0  0
 24 23  1  0  0  0  0
 25 23  1  0  0  0  0
 25 26  1  0  0  0  0
M  END
>  <MODEL>
6

>  <REMARK>
 VINA RESULT:    -5.193     11.177     14.221
 INTER + INTRA:          -9.888
 INTER:                  -8.308
 INTRA:                  -1.580
 UNBOUND:                -1.203
  Name = CHEMBL5284438
  14 active torsions:
  status: ('A' for Active; 'I' for Inactive)
    1  A    between atoms: C_1  and  O_2
    2  A    between atoms: O_2  and  C_3
    3  A    between atoms: C_6  and  C_7
    4  A    between atoms: C_7  and  N_8
    5  A    between atoms: N_8  and  C_9
    6  A    between atoms: C_9  and  C_10
    7  A    between atoms: C_10  and  C_11
    8  A    between atoms: C_11  and  C_12
    9  A    between atoms: C_12  and  C_13
   10  A    between atoms: C_13  and  C_14
   11  A    between atoms: C_14  and  C_15
   12  A    between atoms: N_17  and  O_18
   13  A    between atoms: C_20  and  O_21
   14  A    between atoms: O_21  and  C_22
                            x       y       z     vdW  Elec       q    Type
                         _______ _______ _______ _____ _____    ______ ____

>  <TORSDO>
F 12

>  <SCORE>
-5.193

>  <RMSD_LB>
11.177

>  <RMSD_UB>
14.221

$$$$
CHEMBL5284438
 OpenBabel10172500303D

 26 26  0  0  0  0  0  0  0  0999 V2000
  134.0480  132.9480  148.4330 N   0  0  0  0  0  4  0  0  0  0  0  0
  134.7250  133.0640  149.1860 H   0  0  0  0  0  0  0  0  0  0  0  0
  133.8830  131.9590  148.2400 H   0  0  0  0  0  0  0  0  0  0  0  0
  134.5760  133.5690  147.2170 C   0  0  0  0  0  2  0  0  0  0  0  0
  137.0390  136.9890  148.1650 C   0  0  0  0  0  0  0  0  0  0  0  0
  135.7480  137.1530  147.6390 C   0  0  0  0  0  3  0  0  0  0  0  0
  134.9470  136.0570  147.3430 C   0  0  0  0  0  3  0  0  0  0  0  0
  135.4380  134.7620  147.5180 C   0  0  0  0  0  0  0  0  0  0  0  0
  136.7240  134.5920  148.0390 C   0  0  0  0  0  3  0  0  0  0  0  0
  137.5200  135.6900  148.3940 C   0  0  0  0  0  0  0  0  0  0  0  0
  137.2130  139.2650  148.7750 C   0  0  0  0  0  1  0  0  0  0  0  0
  137.8650  138.0610  148.3830 O   0  0  0  0  0  0  0  0  0  0  0  0
  138.7330  135.3280  148.9220 O   0  0  0  0  0  0  0  0  0  0  0  0
  139.8240  135.2560  148.0140 C   0  0  0  0  0  1  0  0  0  0  0  0
  132.7770  133.5510  148.8390 C   0  0  0  0  0  2  0  0  0  0  0  0
  132.8140  133.9610  150.3100 C   0  0  0  0  0  2  0  0  0  0  0  0
  134.0010  133.3500  151.0320 C   0  0  0  0  0  2  0  0  0  0  0  0
  135.1150  134.3810  151.2000 C   0  0  0  0  0  2  0  0  0  0  0  0
  135.7450  134.2380  152.5790 C   0  0  0  0  0  2  0  0  0  0  0  0
  134.7170  134.3970  153.6930 C   0  0  0  0  0  2  0  0  0  0  0  0
  134.7360  135.8000  154.2540 C   0  0  0  0  0  0  0  0  0  0  0  0
  133.7520  136.5400  154.3130 O   0  0  0  0  0  0  0  0  0  0  0  0
  135.9650  136.2080  154.6930 N   0  0  0  0  0  0  0  0  0  0  0  0
  136.7570  135.6260  154.6300 H   0  0  0  0  0  0  0  0  0  0  0  0
  136.0380  137.5080  155.2430 O   0  0  0  0  0  0  0  0  0  0  0  0
  135.8980  138.1640  154.5430 H   0  0  0  0  0  0  0  0  0  0  0  0
  1 15  1  0  0  0  0
  1  2  1  0  0  0  0
  3  1  1  0  0  0  0
  4  8  1  0  0  0  0
  4  1  1  0  0  0  0
  5 12  1  0  0  0  0
  5 10  1  0  0  0  0
  6  5  2  0  0  0  0
  7  8  2  0  0  0  0
  7  6  1  0  0  0  0
  8  9  1  0  0  0  0
  9 10  2  0  0  0  0
 10 13  1  0  0  0  0
 12 11  1  0  0  0  0
 14 13  1  0  0  0  0
 15 16  1  0  0  0  0
 16 17  1  0  0  0  0
 17 18  1  0  0  0  0
 18 19  1  0  0  0  0
 19 20  1  0  0  0  0
 20 21  1  0  0  0  0
 21 22  2  0  0  0  0
 21 23  1  0  0  0  0
 23 25  1  0  0  0  0
 24 23  1  0  0  0  0
 26 25  1  0  0  0  0
M  END
>  <MODEL>
7

>  <REMARK>
 VINA RESULT:    -5.120      2.977      4.632
 INTER + INTRA:          -9.765
 INTER:                  -8.565
 INTRA:                  -1.200
 UNBOUND:                -1.203
  Name = CHEMBL5284438
  14 active torsions:
  status: ('A' for Active; 'I' for Inactive)
    1  A    between atoms: C_1  and  O_2
    2  A    between atoms: O_2  and  C_3
    3  A    between atoms: C_6  and  C_7
    4  A    between atoms: C_7  and  N_8
    5  A    between atoms: N_8  and  C_9
    6  A    between atoms: C_9  and  C_10
    7  A    between atoms: C_10  and  C_11
    8  A    between atoms: C_11  and  C_12
    9  A    between atoms: C_12  and  C_13
   10  A    between atoms: C_13  and  C_14
   11  A    between atoms: C_14  and  C_15
   12  A    between atoms: N_17  and  O_18
   13  A    between atoms: C_20  and  O_21
   14  A    between atoms: O_21  and  C_22
                            x       y       z     vdW  Elec       q    Type
                         _______ _______ _______ _____ _____    ______ ____

>  <TORSDO>
F 12

>  <SCORE>
-5.120

>  <RMSD_LB>
2.977

>  <RMSD_UB>
4.632

$$$$
CHEMBL5284438
 OpenBabel10172500303D

 26 26  0  0  0  0  0  0  0  0999 V2000
  143.9630  138.1900  149.5280 N   0  0  0  0  0  4  0  0  0  0  0  0
  143.4930  138.4450  148.6600 H   0  0  0  0  0  0  0  0  0  0  0  0
  143.7630  138.8690  150.2630 H   0  0  0  0  0  0  0  0  0  0  0  0
  145.4090  138.1740  149.3000 C   0  0  0  0  0  2  0  0  0  0  0  0
  147.5040  140.2400  152.4630 C   0  0  0  0  0  0  0  0  0  0  0  0
  147.4780  140.7560  151.1570 C   0  0  0  0  0  3  0  0  0  0  0  0
  146.7960  140.1010  150.1380 C   0  0  0  0  0  3  0  0  0  0  0  0
  146.1630  138.8830  150.3890 C   0  0  0  0  0  0  0  0  0  0  0  0
  146.1880  138.3620  151.6860 C   0  0  0  0  0  3  0  0  0  0  0  0
  146.8240  139.0420  152.7340 C   0  0  0  0  0  0  0  0  0  0  0  0
  147.5700  141.8580  154.1830 C   0  0  0  0  0  1  0  0  0  0  0  0
  148.2410  140.8350  153.4530 O   0  0  0  0  0  0  0  0  0  0  0  0
  146.7130  138.3990  153.9400 O   0  0  0  0  0  0  0  0  0  0  0  0
  146.5690  136.9850  153.8950 C   0  0  0  0  0  1  0  0  0  0  0  0
  143.4710  136.8840  149.9690 C   0  0  0  0  0  2  0  0  0  0  0  0
  142.2390  137.0370  150.8600 C   0  0  0  0  0  2  0  0  0  0  0  0
  142.3860  138.2020  151.8230 C   0  0  0  0  0  2  0  0  0  0  0  0
  142.9310  137.7220  153.1660 C   0  0  0  0  0  2  0  0  0  0  0  0
  142.3150  138.5400  154.2930 C   0  0  0  0  0  2  0  0  0  0  0  0
  141.1090  137.8410  154.9100 C   0  0  0  0  0  2  0  0  0  0  0  0
  139.8790  138.7160  154.8400 C   0  0  0  0  0  0  0  0  0  0  0  0
  138.9640  138.6970  155.6660 O   0  0  0  0  0  0  0  0  0  0  0  0
  139.8460  139.5450  153.7540 N   0  0  0  0  0  0  0  0  0  0  0  0
  140.5660  139.5480  153.0820 H   0  0  0  0  0  0  0  0  0  0  0  0
  138.7230  140.3970  153.6460 O   0  0  0  0  0  0  0  0  0  0  0  0
  138.7740  140.8980  152.8170 H   0  0  0  0  0  0  0  0  0  0  0  0
  1 15  1  0  0  0  0
  1  3  1  0  0  0  0
  2  1  1  0  0  0  0
  4  1  1  0  0  0  0
  4  8  1  0  0  0  0
  5 10  1  0  0  0  0
  5 12  1  0  0  0  0
  6  5  2  0  0  0  0
  7  8  2  0  0  0  0
  7  6  1  0  0  0  0
  8  9  1  0  0  0  0
  9 10  2  0  0  0  0
 10 13  1  0  0  0  0
 12 11  1  0  0  0  0
 14 13  1  0  0  0  0
 15 16  1  0  0  0  0
 16 17  1  0  0  0  0
 17 18  1  0  0  0  0
 18 19  1  0  0  0  0
 19 20  1  0  0  0  0
 21 20  1  0  0  0  0
 21 22  2  0  0  0  0
 23 21  1  0  0  0  0
 24 23  1  0  0  0  0
 25 23  1  0  0  0  0
 26 25  1  0  0  0  0
M  END
>  <MODEL>
8

>  <REMARK>
 VINA RESULT:    -5.096      9.286     11.827
 INTER + INTRA:          -9.725
 INTER:                  -8.659
 INTRA:                  -1.066
 UNBOUND:                -1.203
  Name = CHEMBL5284438
  14 active torsions:
  status: ('A' for Active; 'I' for Inactive)
    1  A    between atoms: C_1  and  O_2
    2  A    between atoms: O_2  and  C_3
    3  A    between atoms: C_6  and  C_7
    4  A    between atoms: C_7  and  N_8
    5  A    between atoms: N_8  and  C_9
    6  A    between atoms: C_9  and  C_10
    7  A    between atoms: C_10  and  C_11
    8  A    between atoms: C_11  and  C_12
    9  A    between atoms: C_12  and  C_13
   10  A    between atoms: C_13  and  C_14
   11  A    between atoms: C_14  and  C_15
   12  A    between atoms: N_17  and  O_18
   13  A    between atoms: C_20  and  O_21
   14  A    between atoms: O_21  and  C_22
                            x       y       z     vdW  Elec       q    Type
                         _______ _______ _______ _____ _____    ______ ____

>  <TORSDO>
F 12

>  <SCORE>
-5.096

>  <RMSD_LB>
9.286

>  <RMSD_UB>
11.827

$$$$
CHEMBL5284438
 OpenBabel10172500303D

 26 26  0  0  0  0  0  0  0  0999 V2000
  143.8150  137.9420  149.2670 N   0  0  0  0  0  4  0  0  0  0  0  0
  143.2990  138.1760  148.4200 H   0  0  0  0  0  0  0  0  0  0  0  0
  143.6310  138.6220  150.0060 H   0  0  0  0  0  0  0  0  0  0  0  0
  145.2490  137.9640  148.9720 C   0  0  0  0  0  2  0  0  0  0  0  0
  147.6040  139.8270  152.0770 C   0  0  0  0  0  0  0  0  0  0  0  0
  147.2780  138.4630  152.1400 C   0  0  0  0  0  3  0  0  0  0  0  0
  146.5300  137.8560  151.1370 C   0  0  0  0  0  3  0  0  0  0  0  0
  146.0450  138.6120  150.0700 C   0  0  0  0  0  0  0  0  0  0  0  0
  146.3630  139.9710  150.0030 C   0  0  0  0  0  3  0  0  0  0  0  0
  147.1640  140.5820  150.9780 C   0  0  0  0  0  0  0  0  0  0  0  0
  147.4440  141.0200  154.1110 C   0  0  0  0  0  1  0  0  0  0  0  0
  148.2710  140.4510  153.0990 O   0  0  0  0  0  0  0  0  0  0  0  0
  147.4020  141.9090  150.7270 O   0  0  0  0  0  0  0  0  0  0  0  0
  146.6890  142.4880  149.6410 C   0  0  0  0  0  1  0  0  0  0  0  0
  143.3820  136.6260  149.7400 C   0  0  0  0  0  2  0  0  0  0  0  0
  141.9050  136.6470  150.1330 C   0  0  0  0  0  2  0  0  0  0  0  0
  141.5090  137.9770  150.7500 C   0  0  0  0  0  2  0  0  0  0  0  0
  141.0170  137.7780  152.1820 C   0  0  0  0  0  2  0  0  0  0  0  0
  142.2070  137.6600  153.1240 C   0  0  0  0  0  2  0  0  0  0  0  0
  143.0620  138.9220  153.1210 C   0  0  0  0  0  2  0  0  0  0  0  0
  143.8600  139.0410  154.3980 C   0  0  0  0  0  0  0  0  0  0  0  0
  145.0030  138.6030  154.5490 O   0  0  0  0  0  0  0  0  0  0  0  0
  143.1970  139.6750  155.4120 N   0  0  0  0  0  0  0  0  0  0  0  0
  142.2780  140.0090  155.3010 H   0  0  0  0  0  0  0  0  0  0  0  0
  143.9040  139.8280  156.6270 O   0  0  0  0  0  0  0  0  0  0  0  0
  144.8550  139.8790  156.4450 H   0  0  0  0  0  0  0  0  0  0  0  0
  1 15  1  0  0  0  0
  1  3  1  0  0  0  0
  2  1  1  0  0  0  0
  4  1  1  0  0  0  0
  4  8  1  0  0  0  0
  5  6  1  0  0  0  0
  5 12  1  0  0  0  0
  7  6  2  0  0  0  0
  8  7  1  0  0  0  0
  9  8  2  0  0  0  0
  9 10  1  0  0  0  0
 10  5  2  0  0  0  0
 12 11  1  0  0  0  0
 13 10  1  0  0  0  0
 14 13  1  0  0  0  0
 15 16  1  0  0  0  0
 16 17  1  0  0  0  0
 17 18  1  0  0  0  0
 18 19  1  0  0  0  0
 20 19  1  0  0  0  0
 20 21  1  0  0  0  0
 21 22  2  0  0  0  0
 21 23  1  0  0  0  0
 23 25  1  0  0  0  0
 24 23  1  0  0  0  0
 26 25  1  0  0  0  0
M  END
>  <MODEL>
9

>  <REMARK>
 VINA RESULT:    -4.974     10.005     11.929
 INTER + INTRA:          -9.520
 INTER:                  -8.318
 INTRA:                  -1.203
 UNBOUND:                -1.203
  Name = CHEMBL5284438
  14 active torsions:
  status: ('A' for Active; 'I' for Inactive)
    1  A    between atoms: C_1  and  O_2
    2  A    between atoms: O_2  and  C_3
    3  A    between atoms: C_6  and  C_7
    4  A    between atoms: C_7  and  N_8
    5  A    between atoms: N_8  and  C_9
    6  A    between atoms: C_9  and  C_10
    7  A    between atoms: C_10  and  C_11
    8  A    between atoms: C_11  and  C_12
    9  A    between atoms: C_12  and  C_13
   10  A    between atoms: C_13  and  C_14
   11  A    between atoms: C_14  and  C_15
   12  A    between atoms: N_17  and  O_18
   13  A    between atoms: C_20  and  O_21
   14  A    between atoms: O_21  and  C_22
                            x       y       z     vdW  Elec       q    Type
                         _______ _______ _______ _____ _____    ______ ____

>  <TORSDO>
F 12

>  <SCORE>
-4.974

>  <RMSD_LB>
10.005

>  <RMSD_UB>
11.929

$$$$
