CHEMBL97968
 OpenBabel10172500243D

 33 34  0  0  1  0  0  0  0  0999 V2000
  145.7990  140.9360  149.2950 C   0  0  2  0  0  3  0  0  0  0  0  0
  144.4700  140.5980  149.9280 C   0  0  0  0  0  3  0  0  0  0  0  0
  143.4010  140.1180  149.2760 C   0  0  0  0  0  3  0  0  0  0  0  0
  142.1460  139.9680  150.0390 C   0  0  0  0  0  0  0  0  0  0  0  0
  141.0820  140.4340  149.6720 O   0  0  0  0  0  0  0  0  0  0  0  0
  142.3840  139.2550  151.1670 O   0  0  0  0  0  0  0  0  0  0  0  0
  141.5930  138.0580  151.3920 C   0  0  0  0  0  0  0  0  0  0  0  0
  140.1160  138.3050  151.0540 C   0  0  0  0  0  1  0  0  0  0  0  0
  142.1430  136.9890  150.4320 C   0  0  0  0  0  1  0  0  0  0  0  0
  141.7800  137.5400  152.8250 C   0  0  0  0  0  1  0  0  0  0  0  0
  146.7950  139.7830  149.5240 C   0  0  0  0  0  2  0  0  0  0  0  0
  145.9880  137.5950  150.2960 C   0  0  0  0  0  0  0  0  0  0  0  0
  145.8450  137.2050  149.1390 O   0  0  0  0  0  0  0  0  0  0  0  0
  146.4070  138.8770  150.5920 N   0  0  0  0  0  0  0  0  0  0  0  0
  146.4430  139.1780  151.5280 H   0  0  0  0  0  0  0  0  0  0  0  0
  145.6830  136.7250  151.5090 C   0  0  0  0  0  2  0  0  0  0  0  0
  145.6820  138.7330  154.7670 C   0  0  0  0  0  0  0  0  0  0  0  0
  145.2890  138.1680  153.5490 C   0  0  0  0  0  3  0  0  0  0  0  0
  146.1400  137.3160  152.8250 C   0  0  0  0  0  0  0  0  0  0  0  0
  147.4230  137.0620  153.3260 C   0  0  0  0  0  3  0  0  0  0  0  0
  147.8380  137.6340  154.5330 C   0  0  0  0  0  3  0  0  0  0  0  0
  146.9680  138.4580  155.2480 C   0  0  0  0  0  0  0  0  0  0  0  0
  143.5080  139.5990  155.1920 C   0  0  0  0  0  1  0  0  0  0  0  0
  144.8890  139.5430  155.5360 O   0  0  0  0  0  0  0  0  0  0  0  0
  147.3770  139.0100  156.4310 O   0  0  0  0  0  0  0  0  0  0  0  0
  146.7450  139.3670  157.0250 H   0  0  0  0  0  0  0  0  0  0  0  0
  146.3870  142.2330  149.9010 C   0  0  0  0  0  2  0  0  0  0  0  0
  146.8900  142.0970  151.3210 C   0  0  0  0  0  0  0  0  0  0  0  0
  146.0100  142.2450  152.4030 C   0  0  0  0  0  3  0  0  0  0  0  0
  146.4650  142.1270  153.7150 C   0  0  0  0  0  3  0  0  0  0  0  0
  147.8080  141.8510  153.9610 C   0  0  0  0  0  3  0  0  0  0  0  0
  148.6940  141.7010  152.8950 C   0  0  0  0  0  3  0  0  0  0  0  0
  148.2390  141.8290  151.5800 C   0  0  0  0  0  3  0  0  0  0  0  0
  1 11  1  1  0  0  0
  1 27  1  0  0  0  0
  1  2  1  0  0  0  0
  3  2  2  0  0  0  0
  3  4  1  0  0  0  0
  4  6  1  0  0  0  0
  5  4  2  0  0  0  0
  6  7  1  0  0  0  0
  7 10  1  0  0  0  0
  8  7  1  0  0  0  0
  9  7  1  0  0  0  0
 11 14  1  0  0  0  0
 12 14  1  0  0  0  0
 12 16  1  0  0  0  0
 13 12  2  0  0  0  0
 14 15  1  0  0  0  0
 16 19  1  0  0  0  0
 17 22  1  0  0  0  0
 17 24  1  0  0  0  0
 18 17  2  0  0  0  0
 19 20  2  0  0  0  0
 19 18  1  0  0  0  0
 20 21  1  0  0  0  0
 21 22  2  0  0  0  0
 22 25  1  0  0  0  0
 23 24  1  0  0  0  0
 25 26  1  0  0  0  0
 27 28  1  0  0  0  0
 28 33  2  0  0  0  0
 28 29  1  0  0  0  0
 29 30  2  0  0  0  0
 30 31  1  0  0  0  0
 32 31  2  0  0  0  0
 33 32  1  0  0  0  0
M  END
>  <MODEL>
1

>  <REMARK>
 VINA RESULT:    -8.125      0.000      0.000
 INTER + INTRA:         -15.006
 INTER:                 -13.452
 INTRA:                  -1.555
 UNBOUND:                -1.420
  Name = CHEMBL97968
  16 active torsions:
  status: ('A' for Active; 'I' for Inactive)
    1  A    between atoms: C_1  and  O_2
    2  A    between atoms: O_2  and  C_3
    3  A    between atoms: C_5  and  C_6
    4  A    between atoms: C_6  and  C_7
    5  A    between atoms: N_9  and  C_10
    6  A    between atoms: C_10  and  C_11
    7  A    between atoms: C_11  and  C_12
    8  A    between atoms: C_11  and  C_21
    9  A    between atoms: C_13  and  C_14
   10  A    between atoms: C_14  and  O_16
   11  A    between atoms: O_16  and  C_17
   12  A    between atoms: C_17  and  C_18
   13  A    between atoms: C_17  and  C_19
   14  A    between atoms: C_17  and  C_20
   15  A    between atoms: C_21  and  C_22
   16  A    between atoms: C_30  and  O_31
                            x       y       z     vdW  Elec       q    Type
                         _______ _______ _______ _____ _____    ______ ____

>  <TORSDO>
F 12

>  <SCORE>
-8.125

>  <RMSD_LB>
0.000

>  <RMSD_UB>
0.000

$$$$
CHEMBL97968
 OpenBabel10172500243D

 33 34  0  0  1  0  0  0  0  0999 V2000
  138.8390  137.3970  151.7850 C   0  0  2  0  0  3  0  0  0  0  0  0
  137.4590  137.1130  151.2420 C   0  0  0  0  0  3  0  0  0  0  0  0
  137.0670  135.9550  150.6900 C   0  0  0  0  0  3  0  0  0  0  0  0
  135.7160  135.9040  150.0980 C   0  0  0  0  0  0  0  0  0  0  0  0
  135.2450  136.8070  149.4280 O   0  0  0  0  0  0  0  0  0  0  0  0
  135.1240  134.7270  150.4200 O   0  0  0  0  0  0  0  0  0  0  0  0
  134.0260  134.7570  151.3700 C   0  0  0  0  0  0  0  0  0  0  0  0
  132.6880  134.4830  150.6700 C   0  0  0  0  0  1  0  0  0  0  0  0
  134.2940  133.6240  152.3760 C   0  0  0  0  0  1  0  0  0  0  0  0
  134.0120  136.0800  152.1490 C   0  0  0  0  0  1  0  0  0  0  0  0
  138.7420  138.3550  152.9870 C   0  0  0  0  0  2  0  0  0  0  0  0
  137.8990  138.1340  155.2840 C   0  0  0  0  0  0  0  0  0  0  0  0
  137.2310  139.1600  155.1700 O   0  0  0  0  0  0  0  0  0  0  0  0
  138.7220  137.6790  154.2740 N   0  0  0  0  0  0  0  0  0  0  0  0
  139.2980  136.8940  154.4250 H   0  0  0  0  0  0  0  0  0  0  0  0
  137.9190  137.2930  156.5540 C   0  0  0  0  0  2  0  0  0  0  0  0
  135.1960  135.1560  158.1870 C   0  0  0  0  0  0  0  0  0  0  0  0
  136.3040  135.9900  158.0010 C   0  0  0  0  0  3  0  0  0  0  0  0
  136.7140  136.3920  156.7180 C   0  0  0  0  0  0  0  0  0  0  0  0
  136.0120  135.9120  155.6060 C   0  0  0  0  0  3  0  0  0  0  0  0
  134.9140  135.0620  155.7740 C   0  0  0  0  0  3  0  0  0  0  0  0
  134.5090  134.6940  157.0580 C   0  0  0  0  0  0  0  0  0  0  0  0
  134.0110  135.7240  160.1690 C   0  0  0  0  0  1  0  0  0  0  0  0
  134.7260  134.7540  159.4090 O   0  0  0  0  0  0  0  0  0  0  0  0
  133.4310  133.8670  157.2170 O   0  0  0  0  0  0  0  0  0  0  0  0
  133.5230  133.0620  157.6880 H   0  0  0  0  0  0  0  0  0  0  0  0
  139.7370  138.0440  150.7020 C   0  0  0  0  0  2  0  0  0  0  0  0
  140.8170  137.1390  150.1510 C   0  0  0  0  0  0  0  0  0  0  0  0
  142.1080  137.1610  150.7000 C   0  0  0  0  0  3  0  0  0  0  0  0
  143.1120  136.3340  150.1970 C   0  0  0  0  0  3  0  0  0  0  0  0
  142.8340  135.4700  149.1400 C   0  0  0  0  0  3  0  0  0  0  0  0
  141.5550  135.4390  148.5850 C   0  0  0  0  0  3  0  0  0  0  0  0
  140.5510  136.2730  149.0840 C   0  0  0  0  0  3  0  0  0  0  0  0
  1 27  1  6  0  0  0
  1 11  1  0  0  0  0
  2  1  1  0  0  0  0
  3  2  2  0  0  0  0
  4  6  1  0  0  0  0
  4  3  1  0  0  0  0
  5  4  2  0  0  0  0
  6  7  1  0  0  0  0
  7 10  1  0  0  0  0
  7  9  1  0  0  0  0
  8  7  1  0  0  0  0
 11 14  1  0  0  0  0
 12 16  1  0  0  0  0
 13 12  2  0  0  0  0
 14 15  1  0  0  0  0
 14 12  1  0  0  0  0
 16 19  1  0  0  0  0
 17 24  1  0  0  0  0
 18 17  1  0  0  0  0
 19 18  2  0  0  0  0
 20 21  2  0  0  0  0
 20 19  1  0  0  0  0
 21 22  1  0  0  0  0
 22 25  1  0  0  0  0
 22 17  2  0  0  0  0
 24 23  1  0  0  0  0
 25 26  1  0  0  0  0
 28 29  1  0  0  0  0
 28 27  1  0  0  0  0
 30 29  2  0  0  0  0
 31 30  1  0  0  0  0
 32 33  1  0  0  0  0
 32 31  2  0  0  0  0
 33 28  2  0  0  0  0
M  END
>  <MODEL>
2

>  <REMARK>
 VINA RESULT:    -8.024      6.591      9.726
 INTER + INTRA:         -14.838
 INTER:                 -13.290
 INTRA:                  -1.548
 UNBOUND:                -1.420
  Name = CHEMBL97968
  16 active torsions:
  status: ('A' for Active; 'I' for Inactive)
    1  A    between atoms: C_1  and  O_2
    2  A    between atoms: O_2  and  C_3
    3  A    between atoms: C_5  and  C_6
    4  A    between atoms: C_6  and  C_7
    5  A    between atoms: N_9  and  C_10
    6  A    between atoms: C_10  and  C_11
    7  A    between atoms: C_11  and  C_12
    8  A    between atoms: C_11  and  C_21
    9  A    between atoms: C_13  and  C_14
   10  A    between atoms: C_14  and  O_16
   11  A    between atoms: O_16  and  C_17
   12  A    between atoms: C_17  and  C_18
   13  A    between atoms: C_17  and  C_19
   14  A    between atoms: C_17  and  C_20
   15  A    between atoms: C_21  and  C_22
   16  A    between atoms: C_30  and  O_31
                            x       y       z     vdW  Elec       q    Type
                         _______ _______ _______ _____ _____    ______ ____

>  <TORSDO>
F 12

>  <SCORE>
-8.024

>  <RMSD_LB>
6.591

>  <RMSD_UB>
9.726

$$$$
CHEMBL97968
 OpenBabel10172500243D

 33 34  0  0  1  0  0  0  0  0999 V2000
  145.7480  141.2390  149.6590 C   0  0  2  0  0  3  0  0  0  0  0  0
  144.5360  140.7420  150.4120 C   0  0  0  0  0  3  0  0  0  0  0  0
  143.4650  140.1580  149.8560 C   0  0  0  0  0  3  0  0  0  0  0  0
  142.3190  139.8550  150.7360 C   0  0  0  0  0  0  0  0  0  0  0  0
  141.1610  140.0670  150.4230 O   0  0  0  0  0  0  0  0  0  0  0  0
  142.7700  139.3230  151.8990 O   0  0  0  0  0  0  0  0  0  0  0  0
  142.4290  137.9420  152.1910 C   0  0  0  0  0  0  0  0  0  0  0  0
  142.5260  137.0750  150.9270 C   0  0  0  0  0  1  0  0  0  0  0  0
  143.4720  137.4440  153.2080 C   0  0  0  0  0  1  0  0  0  0  0  0
  141.0480  137.8470  152.8530 C   0  0  0  0  0  1  0  0  0  0  0  0
  146.8270  140.1400  149.6220 C   0  0  0  0  0  2  0  0  0  0  0  0
  147.0060  138.1470  148.1970 C   0  0  0  0  0  0  0  0  0  0  0  0
  146.9730  137.4050  149.1780 O   0  0  0  0  0  0  0  0  0  0  0  0
  146.9900  139.5220  148.3170 N   0  0  0  0  0  0  0  0  0  0  0  0
  147.0890  140.0860  147.5160 H   0  0  0  0  0  0  0  0  0  0  0  0
  147.1070  137.6300  146.7680 C   0  0  0  0  0  2  0  0  0  0  0  0
  150.8250  137.4080  145.8880 C   0  0  0  0  0  0  0  0  0  0  0  0
  149.5790  137.1760  146.4810 C   0  0  0  0  0  3  0  0  0  0  0  0
  148.4380  137.9050  146.1030 C   0  0  0  0  0  0  0  0  0  0  0  0
  148.5710  138.9090  145.1370 C   0  0  0  0  0  3  0  0  0  0  0  0
  149.8130  139.1670  144.5480 C   0  0  0  0  0  3  0  0  0  0  0  0
  150.9290  138.4150  144.9200 C   0  0  0  0  0  0  0  0  0  0  0  0
  151.7950  135.4400  146.8050 C   0  0  0  0  0  1  0  0  0  0  0  0
  151.9660  136.7110  146.1870 O   0  0  0  0  0  0  0  0  0  0  0  0
  152.1400  138.6660  144.3370 O   0  0  0  0  0  0  0  0  0  0  0  0
  152.6220  139.4360  144.5700 H   0  0  0  0  0  0  0  0  0  0  0  0
  146.3400  142.5000  150.3340 C   0  0  0  0  0  2  0  0  0  0  0  0
  147.0750  142.2380  151.6300 C   0  0  0  0  0  0  0  0  0  0  0  0
  146.3690  142.1420  152.8390 C   0  0  0  0  0  3  0  0  0  0  0  0
  147.0370  141.9060  154.0390 C   0  0  0  0  0  3  0  0  0  0  0  0
  148.4220  141.7550  154.0440 C   0  0  0  0  0  3  0  0  0  0  0  0
  149.1360  141.8480  152.8500 C   0  0  0  0  0  3  0  0  0  0  0  0
  148.4670  142.0930  151.6480 C   0  0  0  0  0  3  0  0  0  0  0  0
  1 11  1  1  0  0  0
  1 27  1  0  0  0  0
  1  2  1  0  0  0  0
  3  2  2  0  0  0  0
  3  4  1  0  0  0  0
  4  6  1  0  0  0  0
  5  4  2  0  0  0  0
  6  7  1  0  0  0  0
  7 10  1  0  0  0  0
  7  9  1  0  0  0  0
  8  7  1  0  0  0  0
 12 14  1  0  0  0  0
 12 13  2  0  0  0  0
 14 11  1  0  0  0  0
 15 14  1  0  0  0  0
 16 12  1  0  0  0  0
 17 24  1  0  0  0  0
 17 18  1  0  0  0  0
 19 18  2  0  0  0  0
 19 16  1  0  0  0  0
 20 19  1  0  0  0  0
 21 22  1  0  0  0  0
 21 20  2  0  0  0  0
 22 17  2  0  0  0  0
 24 23  1  0  0  0  0
 25 26  1  0  0  0  0
 25 22  1  0  0  0  0
 27 28  1  0  0  0  0
 28 33  2  0  0  0  0
 28 29  1  0  0  0  0
 29 30  2  0  0  0  0
 30 31  1  0  0  0  0
 32 31  2  0  0  0  0
 33 32  1  0  0  0  0
M  END
>  <MODEL>
3

>  <REMARK>
 VINA RESULT:    -8.005      3.455      5.848
 INTER + INTRA:         -14.807
 INTER:                 -13.884
 INTRA:                  -0.923
 UNBOUND:                -1.420
  Name = CHEMBL97968
  16 active torsions:
  status: ('A' for Active; 'I' for Inactive)
    1  A    between atoms: C_1  and  O_2
    2  A    between atoms: O_2  and  C_3
    3  A    between atoms: C_5  and  C_6
    4  A    between atoms: C_6  and  C_7
    5  A    between atoms: N_9  and  C_10
    6  A    between atoms: C_10  and  C_11
    7  A    between atoms: C_11  and  C_12
    8  A    between atoms: C_11  and  C_21
    9  A    between atoms: C_13  and  C_14
   10  A    between atoms: C_14  and  O_16
   11  A    between atoms: O_16  and  C_17
   12  A    between atoms: C_17  and  C_18
   13  A    between atoms: C_17  and  C_19
   14  A    between atoms: C_17  and  C_20
   15  A    between atoms: C_21  and  C_22
   16  A    between atoms: C_30  and  O_31
                            x       y       z     vdW  Elec       q    Type
                         _______ _______ _______ _____ _____    ______ ____

>  <TORSDO>
F 12

>  <SCORE>
-8.005

>  <RMSD_LB>
3.455

>  <RMSD_UB>
5.848

$$$$
CHEMBL97968
 OpenBabel10172500243D

 33 34  0  0  1  0  0  0  0  0999 V2000
  145.3910  140.7150  150.2180 C   0  0  2  0  0  3  0  0  0  0  0  0
  145.8450  140.5250  148.7890 C   0  0  0  0  0  3  0  0  0  0  0  0
  145.0350  140.2960  147.7450 C   0  0  0  0  0  3  0  0  0  0  0  0
  145.6680  140.0080  146.4420 C   0  0  0  0  0  0  0  0  0  0  0  0
  145.1210  140.2140  145.3730 O   0  0  0  0  0  0  0  0  0  0  0  0
  146.9070  139.4960  146.6440 O   0  0  0  0  0  0  0  0  0  0  0  0
  147.1170  138.0890  146.3480 C   0  0  0  0  0  0  0  0  0  0  0  0
  145.9170  137.2480  146.8070 C   0  0  0  0  0  1  0  0  0  0  0  0
  147.2340  137.9820  144.8180 C   0  0  0  0  0  1  0  0  0  0  0  0
  148.4370  137.5940  146.9540 C   0  0  0  0  0  1  0  0  0  0  0  0
  143.8560  140.6190  150.2960 C   0  0  0  0  0  2  0  0  0  0  0  0
  143.1110  138.3420  150.8350 C   0  0  0  0  0  0  0  0  0  0  0  0
  143.1790  138.0060  149.6550 O   0  0  0  0  0  0  0  0  0  0  0  0
  143.3780  139.6320  151.2480 N   0  0  0  0  0  0  0  0  0  0  0  0
  143.2440  139.8830  152.1910 H   0  0  0  0  0  0  0  0  0  0  0  0
  142.6900  137.3880  151.9460 C   0  0  0  0  0  2  0  0  0  0  0  0
  139.9950  138.2360  154.5280 C   0  0  0  0  0  0  0  0  0  0  0  0
  141.2280  137.9440  153.9340 C   0  0  0  0  0  3  0  0  0  0  0  0
  141.3410  137.7040  152.5540 C   0  0  0  0  0  0  0  0  0  0  0  0
  140.1800  137.7230  151.7710 C   0  0  0  0  0  3  0  0  0  0  0  0
  138.9380  137.9950  152.3520 C   0  0  0  0  0  3  0  0  0  0  0  0
  138.8510  138.2550  153.7210 C   0  0  0  0  0  0  0  0  0  0  0  0
  139.9140  137.4100  156.7570 C   0  0  0  0  0  1  0  0  0  0  0  0
  139.8230  138.5110  155.8590 O   0  0  0  0  0  0  0  0  0  0  0  0
  137.6340  138.5260  154.2840 O   0  0  0  0  0  0  0  0  0  0  0  0
  137.5620  139.1780  154.9530 H   0  0  0  0  0  0  0  0  0  0  0  0
  145.8350  142.0950  150.7590 C   0  0  0  0  0  2  0  0  0  0  0  0
  146.8940  142.0410  151.8390 C   0  0  0  0  0  0  0  0  0  0  0  0
  146.5250  142.0070  153.1920 C   0  0  0  0  0  3  0  0  0  0  0  0
  147.4930  141.9620  154.1950 C   0  0  0  0  0  3  0  0  0  0  0  0
  148.8440  141.9450  153.8540 C   0  0  0  0  0  3  0  0  0  0  0  0
  149.2240  141.9790  152.5130 C   0  0  0  0  0  3  0  0  0  0  0  0
  148.2540  142.0320  151.5080 C   0  0  0  0  0  3  0  0  0  0  0  0
  1  2  1  6  0  0  0
  1 11  1  0  0  0  0
  1 27  1  0  0  0  0
  3  2  2  0  0  0  0
  4  6  1  0  0  0  0
  4  3  1  0  0  0  0
  5  4  2  0  0  0  0
  7  6  1  0  0  0  0
  7  8  1  0  0  0  0
  7 10  1  0  0  0  0
  9  7  1  0  0  0  0
 11 14  1  0  0  0  0
 12 14  1  0  0  0  0
 12 16  1  0  0  0  0
 13 12  2  0  0  0  0
 14 15  1  0  0  0  0
 16 19  1  0  0  0  0
 17 24  1  0  0  0  0
 18 17  1  0  0  0  0
 19 18  2  0  0  0  0
 20 21  2  0  0  0  0
 20 19  1  0  0  0  0
 21 22  1  0  0  0  0
 22 25  1  0  0  0  0
 22 17  2  0  0  0  0
 24 23  1  0  0  0  0
 25 26  1  0  0  0  0
 27 28  1  0  0  0  0
 28 29  1  0  0  0  0
 29 30  2  0  0  0  0
 31 30  1  0  0  0  0
 32 31  2  0  0  0  0
 33 28  2  0  0  0  0
 33 32  1  0  0  0  0
M  END
>  <MODEL>
4

>  <REMARK>
 VINA RESULT:    -7.734      2.873      5.191
 INTER + INTRA:         -14.354
 INTER:                 -13.119
 INTRA:                  -1.235
 UNBOUND:                -1.420
  Name = CHEMBL97968
  16 active torsions:
  status: ('A' for Active; 'I' for Inactive)
    1  A    between atoms: C_1  and  O_2
    2  A    between atoms: O_2  and  C_3
    3  A    between atoms: C_5  and  C_6
    4  A    between atoms: C_6  and  C_7
    5  A    between atoms: N_9  and  C_10
    6  A    between atoms: C_10  and  C_11
    7  A    between atoms: C_11  and  C_12
    8  A    between atoms: C_11  and  C_21
    9  A    between atoms: C_13  and  C_14
   10  A    between atoms: C_14  and  O_16
   11  A    between atoms: O_16  and  C_17
   12  A    between atoms: C_17  and  C_18
   13  A    between atoms: C_17  and  C_19
   14  A    between atoms: C_17  and  C_20
   15  A    between atoms: C_21  and  C_22
   16  A    between atoms: C_30  and  O_31
                            x       y       z     vdW  Elec       q    Type
                         _______ _______ _______ _____ _____    ______ ____

>  <TORSDO>
F 12

>  <SCORE>
-7.734

>  <RMSD_LB>
2.873

>  <RMSD_UB>
5.191

$$$$
CHEMBL97968
 OpenBabel10172500243D

 33 34  0  0  1  0  0  0  0  0999 V2000
  141.5760  137.6280  152.6290 C   0  0  2  0  0  3  0  0  0  0  0  0
  143.0270  137.9980  152.4300 C   0  0  0  0  0  3  0  0  0  0  0  0
  143.5370  139.2310  152.5670 C   0  0  0  0  0  3  0  0  0  0  0  0
  144.9550  139.4270  152.2070 C   0  0  0  0  0  0  0  0  0  0  0  0
  145.8630  138.7720  152.6870 O   0  0  0  0  0  0  0  0  0  0  0  0
  145.0560  140.4200  151.2890 O   0  0  0  0  0  0  0  0  0  0  0  0
  146.0360  141.4650  151.5260 C   0  0  0  0  0  0  0  0  0  0  0  0
  146.0270  141.9020  152.9980 C   0  0  0  0  0  1  0  0  0  0  0  0
  147.4100  140.8500  151.2060 C   0  0  0  0  0  1  0  0  0  0  0  0
  145.8190  142.6460  150.5700 C   0  0  0  0  0  1  0  0  0  0  0  0
  140.9130  137.3600  151.2650 C   0  0  0  0  0  2  0  0  0  0  0  0
  138.6520  136.8990  150.4220 C   0  0  0  0  0  0  0  0  0  0  0  0
  139.0840  136.0690  149.6250 O   0  0  0  0  0  0  0  0  0  0  0  0
  139.4850  137.6310  151.2440 N   0  0  0  0  0  0  0  0  0  0  0  0
  139.1110  138.3380  151.8190 H   0  0  0  0  0  0  0  0  0  0  0  0
  137.1700  137.2320  150.5520 C   0  0  0  0  0  2  0  0  0  0  0  0
  134.7820  134.4180  151.5670 C   0  0  0  0  0  0  0  0  0  0  0  0
  135.5200  135.3310  150.8050 C   0  0  0  0  0  3  0  0  0  0  0  0
  136.3900  136.2560  151.4070 C   0  0  0  0  0  0  0  0  0  0  0  0
  136.4860  136.2800  152.8030 C   0  0  0  0  0  3  0  0  0  0  0  0
  135.7420  135.3870  153.5800 C   0  0  0  0  0  3  0  0  0  0  0  0
  134.9010  134.4600  152.9610 C   0  0  0  0  0  0  0  0  0  0  0  0
  132.8070  133.9490  150.3280 C   0  0  0  0  0  1  0  0  0  0  0  0
  133.9440  133.4720  151.0410 O   0  0  0  0  0  0  0  0  0  0  0  0
  134.1790  133.5850  153.7250 O   0  0  0  0  0  0  0  0  0  0  0  0
  133.2810  133.4120  153.5190 H   0  0  0  0  0  0  0  0  0  0  0  0
  140.8080  138.7670  153.3440 C   0  0  0  0  0  2  0  0  0  0  0  0
  140.0490  138.3390  154.5800 C   0  0  0  0  0  0  0  0  0  0  0  0
  140.7290  137.7760  155.6710 C   0  0  0  0  0  3  0  0  0  0  0  0
  140.0380  137.3740  156.8130 C   0  0  0  0  0  3  0  0  0  0  0  0
  138.6570  137.5370  156.8810 C   0  0  0  0  0  3  0  0  0  0  0  0
  137.9680  138.0960  155.8040 C   0  0  0  0  0  3  0  0  0  0  0  0
  138.6600  138.4900  154.6560 C   0  0  0  0  0  3  0  0  0  0  0  0
  1 11  1  6  0  0  0
  1 27  1  0  0  0  0
  2  3  2  0  0  0  0
  2  1  1  0  0  0  0
  4  3  1  0  0  0  0
  4  5  2  0  0  0  0
  6  7  1  0  0  0  0
  6  4  1  0  0  0  0
  7  8  1  0  0  0  0
  9  7  1  0  0  0  0
 10  7  1  0  0  0  0
 12 16  1  0  0  0  0
 12 14  1  0  0  0  0
 13 12  2  0  0  0  0
 14 11  1  0  0  0  0
 14 15  1  0  0  0  0
 16 19  1  0  0  0  0
 17 22  1  0  0  0  0
 18 19  1  0  0  0  0
 18 17  2  0  0  0  0
 19 20  2  0  0  0  0
 20 21  1  0  0  0  0
 22 21  2  0  0  0  0
 22 25  1  0  0  0  0
 23 24  1  0  0  0  0
 24 17  1  0  0  0  0
 26 25  1  0  0  0  0
 27 28  1  0  0  0  0
 28 33  2  0  0  0  0
 28 29  1  0  0  0  0
 29 30  2  0  0  0  0
 30 31  1  0  0  0  0
 32 31  2  0  0  0  0
 33 32  1  0  0  0  0
M  END
>  <MODEL>
5

>  <REMARK>
 VINA RESULT:    -7.585      4.737      9.048
 INTER + INTRA:         -14.104
 INTER:                 -12.865
 INTRA:                  -1.238
 UNBOUND:                -1.420
  Name = CHEMBL97968
  16 active torsions:
  status: ('A' for Active; 'I' for Inactive)
    1  A    between atoms: C_1  and  O_2
    2  A    between atoms: O_2  and  C_3
    3  A    between atoms: C_5  and  C_6
    4  A    between atoms: C_6  and  C_7
    5  A    between atoms: N_9  and  C_10
    6  A    between atoms: C_10  and  C_11
    7  A    between atoms: C_11  and  C_12
    8  A    between atoms: C_11  and  C_21
    9  A    between atoms: C_13  and  C_14
   10  A    between atoms: C_14  and  O_16
   11  A    between atoms: O_16  and  C_17
   12  A    between atoms: C_17  and  C_18
   13  A    between atoms: C_17  and  C_19
   14  A    between atoms: C_17  and  C_20
   15  A    between atoms: C_21  and  C_22
   16  A    between atoms: C_30  and  O_31
                            x       y       z     vdW  Elec       q    Type
                         _______ _______ _______ _____ _____    ______ ____

>  <TORSDO>
F 12

>  <SCORE>
-7.585

>  <RMSD_LB>
4.737

>  <RMSD_UB>
9.048

$$$$
CHEMBL97968
 OpenBabel10172500243D

 33 34  0  0  1  0  0  0  0  0999 V2000
  136.9660  137.1020  155.8090 C   0  0  2  0  0  3  0  0  0  0  0  0
  136.8990  136.7490  154.3420 C   0  0  0  0  0  3  0  0  0  0  0  0
  135.9910  135.9350  153.7830 C   0  0  0  0  0  3  0  0  0  0  0  0
  136.1600  135.6040  152.3540 C   0  0  0  0  0  0  0  0  0  0  0  0
  136.8570  136.2540  151.5950 O   0  0  0  0  0  0  0  0  0  0  0  0
  135.4330  134.4990  152.0560 O   0  0  0  0  0  0  0  0  0  0  0  0
  134.5010  134.5790  150.9450 C   0  0  0  0  0  0  0  0  0  0  0  0
  135.2490  134.6120  149.6040 C   0  0  0  0  0  1  0  0  0  0  0  0
  133.6510  133.2970  151.0000 C   0  0  0  0  0  1  0  0  0  0  0  0
  133.5550  135.7750  151.1100 C   0  0  0  0  0  1  0  0  0  0  0  0
  138.1820  138.0110  156.0730 C   0  0  0  0  0  2  0  0  0  0  0  0
  140.1090  138.5640  154.6540 C   0  0  0  0  0  0  0  0  0  0  0  0
  139.7410  139.7340  154.5580 O   0  0  0  0  0  0  0  0  0  0  0  0
  139.3750  137.6190  155.3420 N   0  0  0  0  0  0  0  0  0  0  0  0
  139.6620  136.6770  155.3390 H   0  0  0  0  0  0  0  0  0  0  0  0
  141.3760  138.0360  153.9940 C   0  0  0  0  0  2  0  0  0  0  0  0
  142.2500  137.1760  150.3690 C   0  0  0  0  0  0  0  0  0  0  0  0
  142.3570  137.4680  151.7330 C   0  0  0  0  0  3  0  0  0  0  0  0
  141.2220  137.7190  152.5230 C   0  0  0  0  0  0  0  0  0  0  0  0
  139.9620  137.7080  151.9120 C   0  0  0  0  0  3  0  0  0  0  0  0
  139.8390  137.4360  150.5470 C   0  0  0  0  0  3  0  0  0  0  0  0
  140.9770  137.1660  149.7850 C   0  0  0  0  0  0  0  0  0  0  0  0
  143.9900  135.6620  149.7910 C   0  0  0  0  0  1  0  0  0  0  0  0
  143.3120  136.8910  149.5520 O   0  0  0  0  0  0  0  0  0  0  0  0
  140.8500  136.8940  148.4500 O   0  0  0  0  0  0  0  0  0  0  0  0
  140.5730  137.5670  147.8590 H   0  0  0  0  0  0  0  0  0  0  0  0
  137.0960  135.8280  156.6790 C   0  0  0  0  0  2  0  0  0  0  0  0
  136.1440  135.7640  157.8530 C   0  0  0  0  0  0  0  0  0  0  0  0
  135.0120  134.9360  157.8050 C   0  0  0  0  0  3  0  0  0  0  0  0
  134.1260  134.8730  158.8790 C   0  0  0  0  0  3  0  0  0  0  0  0
  134.3660  135.6350  160.0210 C   0  0  0  0  0  3  0  0  0  0  0  0
  135.4870  136.4620  160.0820 C   0  0  0  0  0  3  0  0  0  0  0  0
  136.3700  136.5310  159.0020 C   0  0  0  0  0  3  0  0  0  0  0  0
  1  2  1  6  0  0  0
  1 11  1  0  0  0  0
  1 27  1  0  0  0  0
  3  2  2  0  0  0  0
  4  3  1  0  0  0  0
  5  4  2  0  0  0  0
  6  4  1  0  0  0  0
  7  9  1  0  0  0  0
  7 10  1  0  0  0  0
  7  6  1  0  0  0  0
  8  7  1  0  0  0  0
 12 14  1  0  0  0  0
 13 12  2  0  0  0  0
 14 11  1  0  0  0  0
 15 14  1  0  0  0  0
 16 12  1  0  0  0  0
 17 18  1  0  0  0  0
 18 19  2  0  0  0  0
 19 16  1  0  0  0  0
 20 19  1  0  0  0  0
 21 20  2  0  0  0  0
 22 17  2  0  0  0  0
 22 21  1  0  0  0  0
 24 23  1  0  0  0  0
 24 17  1  0  0  0  0
 25 22  1  0  0  0  0
 26 25  1  0  0  0  0
 27 28  1  0  0  0  0
 28 33  1  0  0  0  0
 29 28  2  0  0  0  0
 29 30  1  0  0  0  0
 30 31  2  0  0  0  0
 31 32  1  0  0  0  0
 33 32  2  0  0  0  0
M  END
>  <MODEL>
6

>  <REMARK>
 VINA RESULT:    -7.554      6.041     10.027
 INTER + INTRA:         -14.052
 INTER:                 -12.832
 INTRA:                  -1.221
 UNBOUND:                -1.420
  Name = CHEMBL97968
  16 active torsions:
  status: ('A' for Active; 'I' for Inactive)
    1  A    between atoms: C_1  and  O_2
    2  A    between atoms: O_2  and  C_3
    3  A    between atoms: C_5  and  C_6
    4  A    between atoms: C_6  and  C_7
    5  A    between atoms: N_9  and  C_10
    6  A    between atoms: C_10  and  C_11
    7  A    between atoms: C_11  and  C_12
    8  A    between atoms: C_11  and  C_21
    9  A    between atoms: C_13  and  C_14
   10  A    between atoms: C_14  and  O_16
   11  A    between atoms: O_16  and  C_17
   12  A    between atoms: C_17  and  C_18
   13  A    between atoms: C_17  and  C_19
   14  A    between atoms: C_17  and  C_20
   15  A    between atoms: C_21  and  C_22
   16  A    between atoms: C_30  and  O_31
                            x       y       z     vdW  Elec       q    Type
                         _______ _______ _______ _____ _____    ______ ____

>  <TORSDO>
F 12

>  <SCORE>
-7.554

>  <RMSD_LB>
6.041

>  <RMSD_UB>
10.027

$$$$
CHEMBL97968
 OpenBabel10172500243D

 33 34  0  0  1  0  0  0  0  0999 V2000
  137.6770  136.8000  155.8490 C   0  0  2  0  0  3  0  0  0  0  0  0
  138.7440  137.4970  155.0380 C   0  0  0  0  0  3  0  0  0  0  0  0
  138.5230  138.4700  154.1410 C   0  0  0  0  0  3  0  0  0  0  0  0
  139.6760  138.9440  153.3510 C   0  0  0  0  0  0  0  0  0  0  0  0
  140.8140  138.9850  153.7850 O   0  0  0  0  0  0  0  0  0  0  0  0
  139.2580  139.3080  152.1130 O   0  0  0  0  0  0  0  0  0  0  0  0
  139.3320  138.3170  151.0530 C   0  0  0  0  0  0  0  0  0  0  0  0
  137.9990  137.5670  150.9110 C   0  0  0  0  0  1  0  0  0  0  0  0
  139.5970  139.0950  149.7520 C   0  0  0  0  0  1  0  0  0  0  0  0
  140.5130  137.3630  151.2770 C   0  0  0  0  0  1  0  0  0  0  0  0
  136.3830  136.6860  155.0200 C   0  0  0  0  0  2  0  0  0  0  0  0
  135.4040  135.4120  153.1630 C   0  0  0  0  0  0  0  0  0  0  0  0
  134.5550  136.2810  152.9730 O   0  0  0  0  0  0  0  0  0  0  0  0
  136.3240  135.4960  154.1880 N   0  0  0  0  0  0  0  0  0  0  0  0
  136.9430  134.7490  154.3550 H   0  0  0  0  0  0  0  0  0  0  0  0
  135.4970  134.1450  152.3200 C   0  0  0  0  0  2  0  0  0  0  0  0
  134.5180  135.0110  148.7230 C   0  0  0  0  0  0  0  0  0  0  0  0
  135.2170  134.9340  149.9330 C   0  0  0  0  0  3  0  0  0  0  0  0
  134.7160  134.2050  151.0250 C   0  0  0  0  0  0  0  0  0  0  0  0
  133.4720  133.5750  150.9010 C   0  0  0  0  0  3  0  0  0  0  0  0
  132.7520  133.6580  149.7050 C   0  0  0  0  0  3  0  0  0  0  0  0
  133.2780  134.3680  148.6240 C   0  0  0  0  0  0  0  0  0  0  0  0
  134.9230  137.0990  147.6600 C   0  0  0  0  0  1  0  0  0  0  0  0
  134.9650  135.6760  147.6130 O   0  0  0  0  0  0  0  0  0  0  0  0
  132.5730  134.4410  147.4540 O   0  0  0  0  0  0  0  0  0  0  0  0
  132.8260  133.9130  146.7210 H   0  0  0  0  0  0  0  0  0  0  0  0
  137.3710  137.5830  157.1490 C   0  0  0  0  0  2  0  0  0  0  0  0
  136.7760  136.7510  158.2630 C   0  0  0  0  0  0  0  0  0  0  0  0
  136.0490  137.3630  159.2950 C   0  0  0  0  0  3  0  0  0  0  0  0
  135.5000  136.6070  160.3290 C   0  0  0  0  0  3  0  0  0  0  0  0
  135.6670  135.2240  160.3400 C   0  0  0  0  0  3  0  0  0  0  0  0
  136.3870  134.6020  159.3200 C   0  0  0  0  0  3  0  0  0  0  0  0
  136.9450  135.3620  158.2880 C   0  0  0  0  0  3  0  0  0  0  0  0
  1 11  1  6  0  0  0
  1 27  1  0  0  0  0
  2  1  1  0  0  0  0
  3  2  2  0  0  0  0
  4  5  2  0  0  0  0
  4  3  1  0  0  0  0
  6  4  1  0  0  0  0
  7 10  1  0  0  0  0
  7  6  1  0  0  0  0
  8  7  1  0  0  0  0
  9  7  1  0  0  0  0
 12 14  1  0  0  0  0
 13 12  2  0  0  0  0
 14 15  1  0  0  0  0
 14 11  1  0  0  0  0
 16 12  1  0  0  0  0
 17 18  1  0  0  0  0
 18 19  2  0  0  0  0
 19 16  1  0  0  0  0
 20 19  1  0  0  0  0
 21 20  2  0  0  0  0
 22 17  2  0  0  0  0
 22 21  1  0  0  0  0
 24 23  1  0  0  0  0
 24 17  1  0  0  0  0
 25 22  1  0  0  0  0
 26 25  1  0  0  0  0
 27 28  1  0  0  0  0
 28 33  2  0  0  0  0
 28 29  1  0  0  0  0
 29 30  2  0  0  0  0
 30 31  1  0  0  0  0
 32 31  2  0  0  0  0
 33 32  1  0  0  0  0
M  END
>  <MODEL>
7

>  <REMARK>
 VINA RESULT:    -7.415      6.849     11.591
 INTER + INTRA:         -13.820
 INTER:                 -12.684
 INTRA:                  -1.137
 UNBOUND:                -1.420
  Name = CHEMBL97968
  16 active torsions:
  status: ('A' for Active; 'I' for Inactive)
    1  A    between atoms: C_1  and  O_2
    2  A    between atoms: O_2  and  C_3
    3  A    between atoms: C_5  and  C_6
    4  A    between atoms: C_6  and  C_7
    5  A    between atoms: N_9  and  C_10
    6  A    between atoms: C_10  and  C_11
    7  A    between atoms: C_11  and  C_12
    8  A    between atoms: C_11  and  C_21
    9  A    between atoms: C_13  and  C_14
   10  A    between atoms: C_14  and  O_16
   11  A    between atoms: O_16  and  C_17
   12  A    between atoms: C_17  and  C_18
   13  A    between atoms: C_17  and  C_19
   14  A    between atoms: C_17  and  C_20
   15  A    between atoms: C_21  and  C_22
   16  A    between atoms: C_30  and  O_31
                            x       y       z     vdW  Elec       q    Type
                         _______ _______ _______ _____ _____    ______ ____

>  <TORSDO>
F 12

>  <SCORE>
-7.415

>  <RMSD_LB>
6.849

>  <RMSD_UB>
11.591

$$$$
CHEMBL97968
 OpenBabel10172500243D

 33 34  0  0  1  0  0  0  0  0999 V2000
  138.7720  137.2750  151.2080 C   0  0  2  0  0  3  0  0  0  0  0  0
  137.4110  136.8530  150.7090 C   0  0  0  0  0  3  0  0  0  0  0  0
  137.0920  135.6230  150.2780 C   0  0  0  0  0  3  0  0  0  0  0  0
  135.7450  135.4290  149.7060 C   0  0  0  0  0  0  0  0  0  0  0  0
  135.2830  136.1350  148.8280 O   0  0  0  0  0  0  0  0  0  0  0  0
  135.1450  134.3720  150.3090 O   0  0  0  0  0  0  0  0  0  0  0  0
  133.9660  134.6310  151.1160 C   0  0  0  0  0  0  0  0  0  0  0  0
  132.6850  134.3140  150.3300 C   0  0  0  0  0  1  0  0  0  0  0  0
  134.0490  133.6780  152.3210 C   0  0  0  0  0  1  0  0  0  0  0  0
  133.9750  136.0680  151.6540 C   0  0  0  0  0  1  0  0  0  0  0  0
  138.6170  138.1900  152.4380 C   0  0  0  0  0  2  0  0  0  0  0  0
  138.0840  138.0040  154.8290 C   0  0  0  0  0  0  0  0  0  0  0  0
  137.5330  139.1030  154.8240 O   0  0  0  0  0  0  0  0  0  0  0  0
  138.6970  137.4850  153.7060 N   0  0  0  0  0  0  0  0  0  0  0  0
  139.1900  136.6340  153.7650 H   0  0  0  0  0  0  0  0  0  0  0  0
  138.1800  137.1290  156.0730 C   0  0  0  0  0  2  0  0  0  0  0  0
  135.4190  135.2630  157.9550 C   0  0  0  0  0  0  0  0  0  0  0  0
  136.5570  136.0260  157.6690 C   0  0  0  0  0  3  0  0  0  0  0  0
  136.9410  136.3040  156.3460 C   0  0  0  0  0  0  0  0  0  0  0  0
  136.1820  135.7690  155.2980 C   0  0  0  0  0  3  0  0  0  0  0  0
  135.0530  134.9900  155.5670 C   0  0  0  0  0  3  0  0  0  0  0  0
  134.6740  134.7450  156.8880 C   0  0  0  0  0  0  0  0  0  0  0  0
  134.4140  136.0690  159.9540 C   0  0  0  0  0  1  0  0  0  0  0  0
  134.9720  134.9840  159.2200 O   0  0  0  0  0  0  0  0  0  0  0  0
  133.5660  133.9870  157.1460 O   0  0  0  0  0  0  0  0  0  0  0  0
  132.8020  134.3840  157.5170 H   0  0  0  0  0  0  0  0  0  0  0  0
  139.5500  138.0410  150.1100 C   0  0  0  0  0  2  0  0  0  0  0  0
  138.6910  138.5930  148.9940 C   0  0  0  0  0  0  0  0  0  0  0  0
  137.9560  139.7730  149.1810 C   0  0  0  0  0  3  0  0  0  0  0  0
  137.1580  140.2870  148.1600 C   0  0  0  0  0  3  0  0  0  0  0  0
  137.0900  139.6280  146.9350 C   0  0  0  0  0  3  0  0  0  0  0  0
  137.8140  138.4530  146.7360 C   0  0  0  0  0  3  0  0  0  0  0  0
  138.6080  137.9340  147.7620 C   0  0  0  0  0  3  0  0  0  0  0  0
  1 27  1  6  0  0  0
  1 11  1  0  0  0  0
  2  1  1  0  0  0  0
  3  2  2  0  0  0  0
  4  3  1  0  0  0  0
  4  6  1  0  0  0  0
  5  4  2  0  0  0  0
  6  7  1  0  0  0  0
  7 10  1  0  0  0  0
  7  9  1  0  0  0  0
  8  7  1  0  0  0  0
 11 14  1  0  0  0  0
 12 16  1  0  0  0  0
 13 12  2  0  0  0  0
 14 15  1  0  0  0  0
 14 12  1  0  0  0  0
 16 19  1  0  0  0  0
 17 24  1  0  0  0  0
 18 17  1  0  0  0  0
 19 18  2  0  0  0  0
 20 21  2  0  0  0  0
 20 19  1  0  0  0  0
 21 22  1  0  0  0  0
 22 25  1  0  0  0  0
 22 17  2  0  0  0  0
 24 23  1  0  0  0  0
 25 26  1  0  0  0  0
 28 29  1  0  0  0  0
 28 27  1  0  0  0  0
 30 29  2  0  0  0  0
 31 30  1  0  0  0  0
 32 31  2  0  0  0  0
 32 33  1  0  0  0  0
 33 28  2  0  0  0  0
M  END
>  <MODEL>
8

>  <REMARK>
 VINA RESULT:    -7.305      7.357     10.089
 INTER + INTRA:         -13.635
 INTER:                 -12.215
 INTRA:                  -1.420
 UNBOUND:                -1.420
  Name = CHEMBL97968
  16 active torsions:
  status: ('A' for Active; 'I' for Inactive)
    1  A    between atoms: C_1  and  O_2
    2  A    between atoms: O_2  and  C_3
    3  A    between atoms: C_5  and  C_6
    4  A    between atoms: C_6  and  C_7
    5  A    between atoms: N_9  and  C_10
    6  A    between atoms: C_10  and  C_11
    7  A    between atoms: C_11  and  C_12
    8  A    between atoms: C_11  and  C_21
    9  A    between atoms: C_13  and  C_14
   10  A    between atoms: C_14  and  O_16
   11  A    between atoms: O_16  and  C_17
   12  A    between atoms: C_17  and  C_18
   13  A    between atoms: C_17  and  C_19
   14  A    between atoms: C_17  and  C_20
   15  A    between atoms: C_21  and  C_22
   16  A    between atoms: C_30  and  O_31
                            x       y       z     vdW  Elec       q    Type
                         _______ _______ _______ _____ _____    ______ ____

>  <TORSDO>
F 12

>  <SCORE>
-7.305

>  <RMSD_LB>
7.357

>  <RMSD_UB>
10.089

$$$$
CHEMBL97968
 OpenBabel10172500243D

 33 34  0  0  1  0  0  0  0  0999 V2000
  145.3560  140.7070  150.3570 C   0  0  2  0  0  3  0  0  0  0  0  0
  145.3930  140.4900  148.8620 C   0  0  0  0  0  3  0  0  0  0  0  0
  146.4460  140.7400  148.0700 C   0  0  0  0  0  3  0  0  0  0  0  0
  146.2550  140.5890  146.6140 C   0  0  0  0  0  0  0  0  0  0  0  0
  145.2320  140.9110  146.0370 O   0  0  0  0  0  0  0  0  0  0  0  0
  147.3720  140.0520  146.0640 O   0  0  0  0  0  0  0  0  0  0  0  0
  147.3410  138.6470  145.6980 C   0  0  0  0  0  0  0  0  0  0  0  0
  147.3740  138.4780  144.1720 C   0  0  0  0  0  1  0  0  0  0  0  0
  148.6140  138.0170  146.2890 C   0  0  0  0  0  1  0  0  0  0  0  0
  146.1340  137.9430  146.3330 C   0  0  0  0  0  1  0  0  0  0  0  0
  143.9010  140.6420  150.8590 C   0  0  0  0  0  2  0  0  0  0  0  0
  143.4100  138.4080  151.7540 C   0  0  0  0  0  0  0  0  0  0  0  0
  144.0900  138.6250  152.7550 O   0  0  0  0  0  0  0  0  0  0  0  0
  143.2960  139.3270  150.7310 N   0  0  0  0  0  0  0  0  0  0  0  0
  142.8020  139.0920  149.9120 H   0  0  0  0  0  0  0  0  0  0  0  0
  142.6660  137.0980  151.5250 C   0  0  0  0  0  2  0  0  0  0  0  0
  139.2260  137.0680  149.8490 C   0  0  0  0  0  0  0  0  0  0  0  0
  140.5990  136.9270  150.0770 C   0  0  0  0  0  3  0  0  0  0  0  0
  141.1770  137.2610  151.3140 C   0  0  0  0  0  0  0  0  0  0  0  0
  140.3560  137.7800  152.3220 C   0  0  0  0  0  3  0  0  0  0  0  0
  138.9850  137.9460  152.1040 C   0  0  0  0  0  3  0  0  0  0  0  0
  138.4260  137.5860  150.8760 C   0  0  0  0  0  0  0  0  0  0  0  0
  138.6640  137.6800  147.6210 C   0  0  0  0  0  1  0  0  0  0  0  0
  138.5970  136.7310  148.6800 O   0  0  0  0  0  0  0  0  0  0  0  0
  137.0840  137.7430  150.6700 O   0  0  0  0  0  0  0  0  0  0  0  0
  136.5410  136.9930  150.5230 H   0  0  0  0  0  0  0  0  0  0  0  0
  145.9530  142.0850  150.7310 C   0  0  0  0  0  2  0  0  0  0  0  0
  146.9910  142.0490  151.8310 C   0  0  0  0  0  0  0  0  0  0  0  0
  148.3580  142.0680  151.5170 C   0  0  0  0  0  3  0  0  0  0  0  0
  149.3230  142.0300  152.5230 C   0  0  0  0  0  3  0  0  0  0  0  0
  148.9290  141.9780  153.8580 C   0  0  0  0  0  3  0  0  0  0  0  0
  147.5740  141.9570  154.1840 C   0  0  0  0  0  3  0  0  0  0  0  0
  146.6070  141.9870  153.1750 C   0  0  0  0  0  3  0  0  0  0  0  0
  1  2  1  6  0  0  0
  1 27  1  0  0  0  0
  1 11  1  0  0  0  0
  3  2  2  0  0  0  0
  4  3  1  0  0  0  0
  5  4  2  0  0  0  0
  6  4  1  0  0  0  0
  7  6  1  0  0  0  0
  7  9  1  0  0  0  0
  7 10  1  0  0  0  0
  8  7  1  0  0  0  0
 12 13  2  0  0  0  0
 14 11  1  0  0  0  0
 14 12  1  0  0  0  0
 15 14  1  0  0  0  0
 16 12  1  0  0  0  0
 17 18  2  0  0  0  0
 17 22  1  0  0  0  0
 18 19  1  0  0  0  0
 19 16  1  0  0  0  0
 19 20  2  0  0  0  0
 21 20  1  0  0  0  0
 22 21  2  0  0  0  0
 23 24  1  0  0  0  0
 24 17  1  0  0  0  0
 25 22  1  0  0  0  0
 26 25  1  0  0  0  0
 27 28  1  0  0  0  0
 28 33  1  0  0  0  0
 29 28  2  0  0  0  0
 29 30  1  0  0  0  0
 30 31  2  0  0  0  0
 31 32  1  0  0  0  0
 33 32  2  0  0  0  0
M  END
>  <MODEL>
9

>  <REMARK>
 VINA RESULT:    -7.261      2.736      6.161
 INTER + INTRA:         -13.563
 INTER:                 -12.417
 INTRA:                  -1.146
 UNBOUND:                -1.420
  Name = CHEMBL97968
  16 active torsions:
  status: ('A' for Active; 'I' for Inactive)
    1  A    between atoms: C_1  and  O_2
    2  A    between atoms: O_2  and  C_3
    3  A    between atoms: C_5  and  C_6
    4  A    between atoms: C_6  and  C_7
    5  A    between atoms: N_9  and  C_10
    6  A    between atoms: C_10  and  C_11
    7  A    between atoms: C_11  and  C_12
    8  A    between atoms: C_11  and  C_21
    9  A    between atoms: C_13  and  C_14
   10  A    between atoms: C_14  and  O_16
   11  A    between atoms: O_16  and  C_17
   12  A    between atoms: C_17  and  C_18
   13  A    between atoms: C_17  and  C_19
   14  A    between atoms: C_17  and  C_20
   15  A    between atoms: C_21  and  C_22
   16  A    between atoms: C_30  and  O_31
                            x       y       z     vdW  Elec       q    Type
                         _______ _______ _______ _____ _____    ______ ____

>  <TORSDO>
F 12

>  <SCORE>
-7.261

>  <RMSD_LB>
2.736

>  <RMSD_UB>
6.161

$$$$
