CHEMBL1376090
 OpenBabel10172500153D

 28 30  0  0  0  0  0  0  0  0999 V2000
  134.3330  134.6550  153.9990 C   0  0  0  0  0  2  0  0  0  0  0  0
  133.7800  135.2750  152.7290 C   0  0  0  0  0  0  0  0  0  0  0  0
  134.1000  136.3950  152.3430 O   0  0  0  0  0  0  0  0  0  0  0  0
  132.9280  134.4450  152.0420 N   0  0  0  0  0  0  0  0  0  0  0  0
  132.7320  133.5560  152.4160 H   0  0  0  0  0  0  0  0  0  0  0  0
  132.3100  134.8250  150.7910 C   0  0  0  0  0  2  0  0  0  0  0  0
  133.0330  134.1980  149.6250 C   0  0  0  0  0  0  0  0  0  0  0  0
  133.6510  132.9340  149.7790 C   0  0  0  0  0  3  0  0  0  0  0  0
  134.3050  132.3150  148.7100 C   0  0  0  0  0  3  0  0  0  0  0  0
  134.3100  132.9680  147.4960 C   0  0  0  0  0  0  0  0  0  0  0  0
  133.7070  134.1920  147.3330 C   0  0  0  0  0  0  0  0  0  0  0  0
  133.0650  134.8350  148.3720 C   0  0  0  0  0  3  0  0  0  0  0  0
  133.8180  134.6570  146.0590 O   0  0  0  0  0  0  0  0  0  0  0  0
  134.4890  133.5460  145.4250 C   0  0  0  0  0  2  0  0  0  0  0  0
  134.8740  132.5070  146.3480 O   0  0  0  0  0  0  0  0  0  0  0  0
  135.8350  134.9030  154.1330 C   0  0  0  0  0  2  0  0  0  0  0  0
  137.4430  137.3600  156.5880 C   0  0  0  0  0  0  0  0  0  0  0  0
  137.1030  136.6840  155.4060 C   0  0  0  0  0  3  0  0  0  0  0  0
  136.1700  135.6370  155.4100 C   0  0  0  0  0  0  0  0  0  0  0  0
  135.5880  135.2500  156.6210 C   0  0  0  0  0  3  0  0  0  0  0  0
  135.9280  135.8980  157.8140 C   0  0  0  0  0  0  0  0  0  0  0  0
  136.8300  136.9830  157.7990 C   0  0  0  0  0  0  0  0  0  0  0  0
  139.3480  138.3660  155.5560 C   0  0  0  0  0  1  0  0  0  0  0  0
  138.4240  138.3180  156.6350 O   0  0  0  0  0  0  0  0  0  0  0  0
  135.3780  135.5520  159.0260 O   0  0  0  0  0  0  0  0  0  0  0  0
  135.9820  134.4390  159.6770 C   0  0  0  0  0  1  0  0  0  0  0  0
  137.0890  137.5490  159.0290 O   0  0  0  0  0  0  0  0  0  0  0  0
  136.1840  138.5520  159.4740 C   0  0  0  0  0  1  0  0  0  0  0  0
  1 16  1  0  0  0  0
  2  1  1  0  0  0  0
  3  2  2  0  0  0  0
  4  5  1  0  0  0  0
  4  2  1  0  0  0  0
  6  4  1  0  0  0  0
  7  8  1  0  0  0  0
  7  6  1  0  0  0  0
  9  8  2  0  0  0  0
 10  9  1  0  0  0  0
 11 10  2  0  0  0  0
 11 12  1  0  0  0  0
 12  7  2  0  0  0  0
 13 11  1  0  0  0  0
 14 13  1  0  0  0  0
 14 15  1  0  0  0  0
 15 10  1  0  0  0  0
 16 19  1  0  0  0  0
 17 24  1  0  0  0  0
 17 22  1  0  0  0  0
 18 19  1  0  0  0  0
 18 17  2  0  0  0  0
 19 20  2  0  0  0  0
 20 21  1  0  0  0  0
 21 25  1  0  0  0  0
 22 21  2  0  0  0  0
 22 27  1  0  0  0  0
 23 24  1  0  0  0  0
 25 26  1  0  0  0  0
 27 28  1  0  0  0  0
M  END
>  <MODEL>
1

>  <REMARK>
 VINA RESULT:    -8.139      0.000      0.000
 INTER + INTRA:         -12.190
 INTER:                 -11.658
 INTRA:                  -0.532
 UNBOUND:                -0.245
  Name = CHEMBL1376090
  11 active torsions:
  status: ('A' for Active; 'I' for Inactive)
    1  A    between atoms: C_1  and  O_2
    2  A    between atoms: O_2  and  C_3
    3  A    between atoms: C_5  and  C_6
    4  A    between atoms: C_6  and  C_7
    5  A    between atoms: C_7  and  C_8
    6  A    between atoms: N_10  and  C_11
    7  A    between atoms: C_11  and  C_12
    8  A    between atoms: C_22  and  O_23
    9  A    between atoms: O_23  and  C_24
   10  A    between atoms: C_25  and  O_26
   11  A    between atoms: O_26  and  C_27
                            x       y       z     vdW  Elec       q    Type
                         _______ _______ _______ _____ _____    ______ ____

>  <TORSDO>
F 8

>  <SCORE>
-8.139

>  <RMSD_LB>
0.000

>  <RMSD_UB>
0.000

$$$$
CHEMBL1376090
 OpenBabel10172500153D

 28 30  0  0  0  0  0  0  0  0999 V2000
  139.9030  136.5780  149.4590 C   0  0  0  0  0  2  0  0  0  0  0  0
  138.7900  135.6220  149.0700 C   0  0  0  0  0  0  0  0  0  0  0  0
  139.0040  134.5210  148.5720 O   0  0  0  0  0  0  0  0  0  0  0  0
  137.5360  136.0930  149.3700 N   0  0  0  0  0  0  0  0  0  0  0  0
  137.4510  136.9850  149.7790 H   0  0  0  0  0  0  0  0  0  0  0  0
  136.3330  135.3310  149.1110 C   0  0  0  0  0  2  0  0  0  0  0  0
  135.5440  135.1280  150.3800 C   0  0  0  0  0  0  0  0  0  0  0  0
  134.7290  133.9810  150.5240 C   0  0  0  0  0  3  0  0  0  0  0  0
  134.0070  133.7510  151.6980 C   0  0  0  0  0  3  0  0  0  0  0  0
  134.1320  134.6690  152.7190 C   0  0  0  0  0  0  0  0  0  0  0  0
  134.9260  135.7840  152.5930 C   0  0  0  0  0  0  0  0  0  0  0  0
  135.6410  136.0460  151.4410 C   0  0  0  0  0  3  0  0  0  0  0  0
  134.9170  136.5540  153.7140 O   0  0  0  0  0  0  0  0  0  0  0  0
  134.0910  135.7520  154.5850 C   0  0  0  0  0  2  0  0  0  0  0  0
  133.5250  134.5960  153.9330 O   0  0  0  0  0  0  0  0  0  0  0  0
  139.3550  137.8040  150.1900 C   0  0  0  0  0  2  0  0  0  0  0  0
  139.7230  138.5700  153.9220 C   0  0  0  0  0  0  0  0  0  0  0  0
  139.1760  138.4060  152.6400 C   0  0  0  0  0  3  0  0  0  0  0  0
  139.9550  137.9490  151.5680 C   0  0  0  0  0  0  0  0  0  0  0  0
  141.3090  137.6730  151.7830 C   0  0  0  0  0  3  0  0  0  0  0  0
  141.8800  137.8470  153.0480 C   0  0  0  0  0  0  0  0  0  0  0  0
  141.0820  138.2610  154.1350 C   0  0  0  0  0  0  0  0  0  0  0  0
  137.9490  138.3420  155.5050 C   0  0  0  0  0  1  0  0  0  0  0  0
  139.0150  139.1110  154.9640 O   0  0  0  0  0  0  0  0  0  0  0  0
  143.2060  137.5860  153.3040 O   0  0  0  0  0  0  0  0  0  0  0  0
  144.1360  138.2510  152.4560 C   0  0  0  0  0  1  0  0  0  0  0  0
  141.7460  138.3960  155.3350 O   0  0  0  0  0  0  0  0  0  0  0  0
  142.4190  139.6300  155.5570 C   0  0  0  0  0  1  0  0  0  0  0  0
  1 16  1  0  0  0  0
  2  4  1  0  0  0  0
  2  1  1  0  0  0  0
  3  2  2  0  0  0  0
  4  5  1  0  0  0  0
  6  4  1  0  0  0  0
  6  7  1  0  0  0  0
  7  8  2  0  0  0  0
  7 12  1  0  0  0  0
  8  9  1  0  0  0  0
  9 10  2  0  0  0  0
 10 15  1  0  0  0  0
 11 10  1  0  0  0  0
 11 13  1  0  0  0  0
 12 11  2  0  0  0  0
 13 14  1  0  0  0  0
 15 14  1  0  0  0  0
 16 19  1  0  0  0  0
 17 22  1  0  0  0  0
 17 24  1  0  0  0  0
 18 17  2  0  0  0  0
 19 20  2  0  0  0  0
 19 18  1  0  0  0  0
 20 21  1  0  0  0  0
 21 25  1  0  0  0  0
 21 22  2  0  0  0  0
 22 27  1  0  0  0  0
 24 23  1  0  0  0  0
 26 25  1  0  0  0  0
 27 28  1  0  0  0  0
M  END
>  <MODEL>
2

>  <REMARK>
 VINA RESULT:    -7.417      3.656      6.348
 INTER + INTRA:         -11.130
 INTER:                 -10.114
 INTRA:                  -1.017
 UNBOUND:                -0.245
  Name = CHEMBL1376090
  11 active torsions:
  status: ('A' for Active; 'I' for Inactive)
    1  A    between atoms: C_1  and  O_2
    2  A    between atoms: O_2  and  C_3
    3  A    between atoms: C_5  and  C_6
    4  A    between atoms: C_6  and  C_7
    5  A    between atoms: C_7  and  C_8
    6  A    between atoms: N_10  and  C_11
    7  A    between atoms: C_11  and  C_12
    8  A    between atoms: C_22  and  O_23
    9  A    between atoms: O_23  and  C_24
   10  A    between atoms: C_25  and  O_26
   11  A    between atoms: O_26  and  C_27
                            x       y       z     vdW  Elec       q    Type
                         _______ _______ _______ _____ _____    ______ ____

>  <TORSDO>
F 8

>  <SCORE>
-7.417

>  <RMSD_LB>
3.656

>  <RMSD_UB>
6.348

$$$$
CHEMBL1376090
 OpenBabel10172500153D

 28 30  0  0  0  0  0  0  0  0999 V2000
  134.1710  135.8140  153.8990 C   0  0  0  0  0  2  0  0  0  0  0  0
  134.5190  135.6910  152.4270 C   0  0  0  0  0  0  0  0  0  0  0  0
  133.7300  135.9740  151.5320 O   0  0  0  0  0  0  0  0  0  0  0  0
  135.8100  135.2780  152.2040 N   0  0  0  0  0  0  0  0  0  0  0  0
  136.3830  135.0810  152.9800 H   0  0  0  0  0  0  0  0  0  0  0  0
  136.3610  135.1220  150.8760 C   0  0  0  0  0  2  0  0  0  0  0  0
  136.8460  136.4450  150.3390 C   0  0  0  0  0  0  0  0  0  0  0  0
  136.2680  136.9810  149.1640 C   0  0  0  0  0  3  0  0  0  0  0  0
  136.6780  138.2170  148.6560 C   0  0  0  0  0  3  0  0  0  0  0  0
  137.6490  138.9060  149.3510 C   0  0  0  0  0  0  0  0  0  0  0  0
  138.2120  138.3990  150.4980 C   0  0  0  0  0  0  0  0  0  0  0  0
  137.8390  137.1750  151.0160 C   0  0  0  0  0  3  0  0  0  0  0  0
  139.1410  139.2380  151.0320 O   0  0  0  0  0  0  0  0  0  0  0  0
  139.0360  140.3630  150.1330 C   0  0  0  0  0  2  0  0  0  0  0  0
  138.1500  140.1260  149.0200 O   0  0  0  0  0  0  0  0  0  0  0  0
  135.0210  134.8750  154.7540 C   0  0  0  0  0  2  0  0  0  0  0  0
  137.0590  137.3440  156.8520 C   0  0  0  0  0  0  0  0  0  0  0  0
  136.4750  136.6840  155.7600 C   0  0  0  0  0  3  0  0  0  0  0  0
  135.6200  135.5890  155.9430 C   0  0  0  0  0  0  0  0  0  0  0  0
  135.3650  135.1360  157.2410 C   0  0  0  0  0  3  0  0  0  0  0  0
  135.9530  135.7670  158.3440 C   0  0  0  0  0  0  0  0  0  0  0  0
  136.7740  136.8990  158.1590 C   0  0  0  0  0  0  0  0  0  0  0  0
  139.1240  138.0830  155.9060 C   0  0  0  0  0  1  0  0  0  0  0  0
  137.9780  138.3510  156.7030 O   0  0  0  0  0  0  0  0  0  0  0  0
  135.7280  135.3560  159.6370 O   0  0  0  0  0  0  0  0  0  0  0  0
  136.4880  134.2310  160.0630 C   0  0  0  0  0  1  0  0  0  0  0  0
  137.2950  137.4410  159.3130 O   0  0  0  0  0  0  0  0  0  0  0  0
  136.5530  138.4940  159.9170 C   0  0  0  0  0  1  0  0  0  0  0  0
  1 16  1  0  0  0  0
  2  1  1  0  0  0  0
  3  2  2  0  0  0  0
  4  2  1  0  0  0  0
  4  5  1  0  0  0  0
  6  4  1  0  0  0  0
  7  6  1  0  0  0  0
  7 12  1  0  0  0  0
  8  7  2  0  0  0  0
  9  8  1  0  0  0  0
  9 10  2  0  0  0  0
 10 11  1  0  0  0  0
 11 12  2  0  0  0  0
 11 13  1  0  0  0  0
 14 13  1  0  0  0  0
 15 10  1  0  0  0  0
 15 14  1  0  0  0  0
 16 19  1  0  0  0  0
 17 22  1  0  0  0  0
 18 19  1  0  0  0  0
 18 17  2  0  0  0  0
 19 20  2  0  0  0  0
 20 21  1  0  0  0  0
 21 25  1  0  0  0  0
 22 21  2  0  0  0  0
 22 27  1  0  0  0  0
 23 24  1  0  0  0  0
 24 17  1  0  0  0  0
 25 26  1  0  0  0  0
 27 28  1  0  0  0  0
M  END
>  <MODEL>
3

>  <REMARK>
 VINA RESULT:    -7.401      3.197      4.262
 INTER + INTRA:         -11.107
 INTER:                 -10.222
 INTRA:                  -0.885
 UNBOUND:                -0.245
  Name = CHEMBL1376090
  11 active torsions:
  status: ('A' for Active; 'I' for Inactive)
    1  A    between atoms: C_1  and  O_2
    2  A    between atoms: O_2  and  C_3
    3  A    between atoms: C_5  and  C_6
    4  A    between atoms: C_6  and  C_7
    5  A    between atoms: C_7  and  C_8
    6  A    between atoms: N_10  and  C_11
    7  A    between atoms: C_11  and  C_12
    8  A    between atoms: C_22  and  O_23
    9  A    between atoms: O_23  and  C_24
   10  A    between atoms: C_25  and  O_26
   11  A    between atoms: O_26  and  C_27
                            x       y       z     vdW  Elec       q    Type
                         _______ _______ _______ _____ _____    ______ ____

>  <TORSDO>
F 8

>  <SCORE>
-7.401

>  <RMSD_LB>
3.197

>  <RMSD_UB>
4.262

$$$$
CHEMBL1376090
 OpenBabel10172500153D

 28 30  0  0  0  0  0  0  0  0999 V2000
  143.5310  136.9810  149.0570 C   0  0  0  0  0  2  0  0  0  0  0  0
  143.7280  138.4620  148.7850 C   0  0  0  0  0  0  0  0  0  0  0  0
  142.8090  139.2030  148.4510 O   0  0  0  0  0  0  0  0  0  0  0  0
  145.0160  138.8880  148.9930 N   0  0  0  0  0  0  0  0  0  0  0  0
  145.6930  138.2290  149.2700 H   0  0  0  0  0  0  0  0  0  0  0  0
  145.4190  140.2670  148.8200 C   0  0  0  0  0  2  0  0  0  0  0  0
  145.9690  140.8290  150.1070 C   0  0  0  0  0  0  0  0  0  0  0  0
  145.2780  141.8700  150.7700 C   0  0  0  0  0  3  0  0  0  0  0  0
  145.7490  142.3940  151.9780 C   0  0  0  0  0  3  0  0  0  0  0  0
  146.8960  141.8460  152.5110 C   0  0  0  0  0  0  0  0  0  0  0  0
  147.5710  140.8300  151.8790 C   0  0  0  0  0  0  0  0  0  0  0  0
  147.1400  140.3010  150.6790 C   0  0  0  0  0  3  0  0  0  0  0  0
  148.6690  140.4290  152.5750 O   0  0  0  0  0  0  0  0  0  0  0  0
  148.5580  141.2550  153.7540 C   0  0  0  0  0  2  0  0  0  0  0  0
  147.4820  142.2120  153.6820 O   0  0  0  0  0  0  0  0  0  0  0  0
  142.1950  136.7140  149.7500 C   0  0  0  0  0  2  0  0  0  0  0  0
  143.4490  137.5870  153.2590 C   0  0  0  0  0  0  0  0  0  0  0  0
  143.4170  137.2000  151.9110 C   0  0  0  0  0  3  0  0  0  0  0  0
  142.2140  137.1580  151.1930 C   0  0  0  0  0  0  0  0  0  0  0  0
  141.0220  137.4900  151.8460 C   0  0  0  0  0  3  0  0  0  0  0  0
  141.0290  137.8600  153.1960 C   0  0  0  0  0  0  0  0  0  0  0  0
  142.2470  137.9480  153.9010 C   0  0  0  0  0  0  0  0  0  0  0  0
  145.5380  138.5870  153.8430 C   0  0  0  0  0  1  0  0  0  0  0  0
  144.5920  137.5400  154.0150 O   0  0  0  0  0  0  0  0  0  0  0  0
  139.8810  138.1960  153.8750 O   0  0  0  0  0  0  0  0  0  0  0  0
  139.1870  139.3360  153.3800 C   0  0  0  0  0  1  0  0  0  0  0  0
  142.1360  138.3260  155.2210 O   0  0  0  0  0  0  0  0  0  0  0  0
  142.4510  139.6780  155.5280 C   0  0  0  0  0  1  0  0  0  0  0  0
  1 16  1  0  0  0  0
  2  4  1  0  0  0  0
  2  1  1  0  0  0  0
  3  2  2  0  0  0  0
  4  5  1  0  0  0  0
  6  4  1  0  0  0  0
  6  7  1  0  0  0  0
  7 12  2  0  0  0  0
  7  8  1  0  0  0  0
  8  9  2  0  0  0  0
  9 10  1  0  0  0  0
 10 15  1  0  0  0  0
 11 10  2  0  0  0  0
 11 13  1  0  0  0  0
 12 11  1  0  0  0  0
 13 14  1  0  0  0  0
 15 14  1  0  0  0  0
 16 19  1  0  0  0  0
 17 22  1  0  0  0  0
 17 24  1  0  0  0  0
 18 17  2  0  0  0  0
 19 20  2  0  0  0  0
 19 18  1  0  0  0  0
 20 21  1  0  0  0  0
 21 25  1  0  0  0  0
 21 22  2  0  0  0  0
 22 27  1  0  0  0  0
 23 24  1  0  0  0  0
 26 25  1  0  0  0  0
 27 28  1  0  0  0  0
M  END
>  <MODEL>
4

>  <REMARK>
 VINA RESULT:    -7.324      7.708     11.795
 INTER + INTRA:         -10.994
 INTER:                  -9.801
 INTRA:                  -1.193
 UNBOUND:                -0.245
  Name = CHEMBL1376090
  11 active torsions:
  status: ('A' for Active; 'I' for Inactive)
    1  A    between atoms: C_1  and  O_2
    2  A    between atoms: O_2  and  C_3
    3  A    between atoms: C_5  and  C_6
    4  A    between atoms: C_6  and  C_7
    5  A    between atoms: C_7  and  C_8
    6  A    between atoms: N_10  and  C_11
    7  A    between atoms: C_11  and  C_12
    8  A    between atoms: C_22  and  O_23
    9  A    between atoms: O_23  and  C_24
   10  A    between atoms: C_25  and  O_26
   11  A    between atoms: O_26  and  C_27
                            x       y       z     vdW  Elec       q    Type
                         _______ _______ _______ _____ _____    ______ ____

>  <TORSDO>
F 8

>  <SCORE>
-7.324

>  <RMSD_LB>
7.708

>  <RMSD_UB>
11.795

$$$$
CHEMBL1376090
 OpenBabel10172500153D

 28 30  0  0  0  0  0  0  0  0999 V2000
  145.1140  138.3330  148.4410 C   0  0  0  0  0  2  0  0  0  0  0  0
  143.6610  138.0860  148.8060 C   0  0  0  0  0  0  0  0  0  0  0  0
  142.7310  138.6660  148.2560 O   0  0  0  0  0  0  0  0  0  0  0  0
  143.4970  137.1240  149.7720 N   0  0  0  0  0  0  0  0  0  0  0  0
  144.2970  136.6980  150.1560 H   0  0  0  0  0  0  0  0  0  0  0  0
  142.1940  136.7110  150.2480 C   0  0  0  0  0  2  0  0  0  0  0  0
  141.8310  137.4420  151.5160 C   0  0  0  0  0  0  0  0  0  0  0  0
  140.4730  137.5530  151.8980 C   0  0  0  0  0  3  0  0  0  0  0  0
  140.1070  138.2010  153.0810 C   0  0  0  0  0  3  0  0  0  0  0  0
  141.1140  138.7080  153.8730 C   0  0  0  0  0  0  0  0  0  0  0  0
  142.4370  138.6000  153.5150 C   0  0  0  0  0  0  0  0  0  0  0  0
  142.8300  137.9790  152.3470 C   0  0  0  0  0  3  0  0  0  0  0  0
  143.2680  139.1580  154.4370 O   0  0  0  0  0  0  0  0  0  0  0  0
  142.3190  139.5550  155.4500 C   0  0  0  0  0  2  0  0  0  0  0  0
  140.9460  139.3460  155.0620 O   0  0  0  0  0  0  0  0  0  0  0  0
  146.0600  137.6040  149.3950 C   0  0  0  0  0  2  0  0  0  0  0  0
  147.4140  140.8080  150.9920 C   0  0  0  0  0  0  0  0  0  0  0  0
  146.8040  139.9190  150.0950 C   0  0  0  0  0  3  0  0  0  0  0  0
  146.6970  138.5510  150.3840 C   0  0  0  0  0  0  0  0  0  0  0  0
  147.2300  138.0670  151.5830 C   0  0  0  0  0  3  0  0  0  0  0  0
  147.8610  138.9340  152.4840 C   0  0  0  0  0  0  0  0  0  0  0  0
  147.9230  140.3160  152.2110 C   0  0  0  0  0  0  0  0  0  0  0  0
  146.6430  142.7920  149.9080 C   0  0  0  0  0  1  0  0  0  0  0  0
  147.6250  142.1300  150.6940 O   0  0  0  0  0  0  0  0  0  0  0  0
  148.3960  138.5010  153.6740 O   0  0  0  0  0  0  0  0  0  0  0  0
  149.4600  137.5620  153.5610 C   0  0  0  0  0  1  0  0  0  0  0  0
  148.5620  141.0750  153.1670 O   0  0  0  0  0  0  0  0  0  0  0  0
  147.7330  141.8210  154.0500 C   0  0  0  0  0  1  0  0  0  0  0  0
  1  2  1  0  0  0  0
  1 16  1  0  0  0  0
  2  4  1  0  0  0  0
  3  2  2  0  0  0  0
  4  5  1  0  0  0  0
  4  6  1  0  0  0  0
  6  7  1  0  0  0  0
  7  8  2  0  0  0  0
  7 12  1  0  0  0  0
  8  9  1  0  0  0  0
  9 10  2  0  0  0  0
 10 15  1  0  0  0  0
 11 10  1  0  0  0  0
 11 13  1  0  0  0  0
 12 11  2  0  0  0  0
 13 14  1  0  0  0  0
 15 14  1  0  0  0  0
 16 19  1  0  0  0  0
 17 22  1  0  0  0  0
 18 19  1  0  0  0  0
 18 17  2  0  0  0  0
 19 20  2  0  0  0  0
 20 21  1  0  0  0  0
 21 25  1  0  0  0  0
 22 21  2  0  0  0  0
 22 27  1  0  0  0  0
 23 24  1  0  0  0  0
 24 17  1  0  0  0  0
 26 25  1  0  0  0  0
 27 28  1  0  0  0  0
M  END
>  <MODEL>
5

>  <REMARK>
 VINA RESULT:    -7.261      8.144     11.960
 INTER + INTRA:         -10.901
 INTER:                  -9.652
 INTRA:                  -1.249
 UNBOUND:                -0.245
  Name = CHEMBL1376090
  11 active torsions:
  status: ('A' for Active; 'I' for Inactive)
    1  A    between atoms: C_1  and  O_2
    2  A    between atoms: O_2  and  C_3
    3  A    between atoms: C_5  and  C_6
    4  A    between atoms: C_6  and  C_7
    5  A    between atoms: C_7  and  C_8
    6  A    between atoms: N_10  and  C_11
    7  A    between atoms: C_11  and  C_12
    8  A    between atoms: C_22  and  O_23
    9  A    between atoms: O_23  and  C_24
   10  A    between atoms: C_25  and  O_26
   11  A    between atoms: O_26  and  C_27
                            x       y       z     vdW  Elec       q    Type
                         _______ _______ _______ _____ _____    ______ ____

>  <TORSDO>
F 8

>  <SCORE>
-7.261

>  <RMSD_LB>
8.144

>  <RMSD_UB>
11.960

$$$$
CHEMBL1376090
 OpenBabel10172500153D

 28 30  0  0  0  0  0  0  0  0999 V2000
  145.2190  135.7640  149.1030 C   0  0  0  0  0  2  0  0  0  0  0  0
  143.7220  135.5600  149.2530 C   0  0  0  0  0  0  0  0  0  0  0  0
  143.1660  134.5030  148.9770 O   0  0  0  0  0  0  0  0  0  0  0  0
  143.0710  136.6550  149.7670 N   0  0  0  0  0  0  0  0  0  0  0  0
  143.5950  137.4630  149.9720 H   0  0  0  0  0  0  0  0  0  0  0  0
  141.6470  136.6680  150.0190 C   0  0  0  0  0  2  0  0  0  0  0  0
  141.3390  137.3690  151.3180 C   0  0  0  0  0  0  0  0  0  0  0  0
  139.9940  137.5680  151.7070 C   0  0  0  0  0  3  0  0  0  0  0  0
  139.6770  138.1910  152.9180 C   0  0  0  0  0  3  0  0  0  0  0  0
  140.7200  138.5850  153.7290 C   0  0  0  0  0  0  0  0  0  0  0  0
  142.0310  138.3910  153.3640 C   0  0  0  0  0  0  0  0  0  0  0  0
  142.3760  137.7920  152.1690 C   0  0  0  0  0  3  0  0  0  0  0  0
  142.9010  138.8430  154.3060 O   0  0  0  0  0  0  0  0  0  0  0  0
  141.9850  139.2690  155.3380 C   0  0  0  0  0  2  0  0  0  0  0  0
  140.6000  139.1820  154.9450 O   0  0  0  0  0  0  0  0  0  0  0  0
  145.5520  137.2110  148.7420 C   0  0  0  0  0  2  0  0  0  0  0  0
  146.8210  138.0320  152.2580 C   0  0  0  0  0  0  0  0  0  0  0  0
  146.3770  137.3250  151.1310 C   0  0  0  0  0  3  0  0  0  0  0  0
  146.0530  137.9860  149.9380 C   0  0  0  0  0  0  0  0  0  0  0  0
  146.1560  139.3800  149.8850 C   0  0  0  0  0  3  0  0  0  0  0  0
  146.5780  140.1060  151.0040 C   0  0  0  0  0  0  0  0  0  0  0  0
  146.9500  139.4340  152.1860 C   0  0  0  0  0  0  0  0  0  0  0  0
  145.9230  136.9110  154.1670 C   0  0  0  0  0  1  0  0  0  0  0  0
  147.0480  137.4270  153.4680 O   0  0  0  0  0  0  0  0  0  0  0  0
  146.6950  141.4770  150.9940 O   0  0  0  0  0  0  0  0  0  0  0  0
  145.4690  142.1960  150.9210 C   0  0  0  0  0  1  0  0  0  0  0  0
  147.3530  140.2470  153.2230 O   0  0  0  0  0  0  0  0  0  0  0  0
  148.7510  140.3120  153.4780 C   0  0  0  0  0  1  0  0  0  0  0  0
  1  2  1  0  0  0  0
  2  4  1  0  0  0  0
  3  2  2  0  0  0  0
  4  5  1  0  0  0  0
  4  6  1  0  0  0  0
  6  7  1  0  0  0  0
  7  8  2  0  0  0  0
  7 12  1  0  0  0  0
  8  9  1  0  0  0  0
  9 10  2  0  0  0  0
 10 15  1  0  0  0  0
 11 10  1  0  0  0  0
 11 13  1  0  0  0  0
 12 11  2  0  0  0  0
 13 14  1  0  0  0  0
 15 14  1  0  0  0  0
 16  1  1  0  0  0  0
 16 19  1  0  0  0  0
 17 24  1  0  0  0  0
 18 17  2  0  0  0  0
 19 18  1  0  0  0  0
 20 19  2  0  0  0  0
 20 21  1  0  0  0  0
 21 22  2  0  0  0  0
 22 17  1  0  0  0  0
 22 27  1  0  0  0  0
 24 23  1  0  0  0  0
 25 21  1  0  0  0  0
 26 25  1  0  0  0  0
 27 28  1  0  0  0  0
M  END
>  <MODEL>
6

>  <REMARK>
 VINA RESULT:    -7.012      7.554     11.436
 INTER + INTRA:         -10.536
 INTER:                  -9.312
 INTRA:                  -1.224
 UNBOUND:                -0.245
  Name = CHEMBL1376090
  11 active torsions:
  status: ('A' for Active; 'I' for Inactive)
    1  A    between atoms: C_1  and  O_2
    2  A    between atoms: O_2  and  C_3
    3  A    between atoms: C_5  and  C_6
    4  A    between atoms: C_6  and  C_7
    5  A    between atoms: C_7  and  C_8
    6  A    between atoms: N_10  and  C_11
    7  A    between atoms: C_11  and  C_12
    8  A    between atoms: C_22  and  O_23
    9  A    between atoms: O_23  and  C_24
   10  A    between atoms: C_25  and  O_26
   11  A    between atoms: O_26  and  C_27
                            x       y       z     vdW  Elec       q    Type
                         _______ _______ _______ _____ _____    ______ ____

>  <TORSDO>
F 8

>  <SCORE>
-7.012

>  <RMSD_LB>
7.554

>  <RMSD_UB>
11.436

$$$$
CHEMBL1376090
 OpenBabel10172500153D

 28 30  0  0  0  0  0  0  0  0999 V2000
  139.5290  138.1210  150.7640 C   0  0  0  0  0  2  0  0  0  0  0  0
  138.5940  137.0150  150.3060 C   0  0  0  0  0  0  0  0  0  0  0  0
  138.9210  136.1690  149.4800 O   0  0  0  0  0  0  0  0  0  0  0  0
  137.3760  137.0340  150.9390 N   0  0  0  0  0  0  0  0  0  0  0  0
  137.1970  137.7430  151.5980 H   0  0  0  0  0  0  0  0  0  0  0  0
  136.3450  136.0540  150.6760 C   0  0  0  0  0  2  0  0  0  0  0  0
  135.7560  135.5380  151.9650 C   0  0  0  0  0  0  0  0  0  0  0  0
  134.8680  134.4360  151.9400 C   0  0  0  0  0  3  0  0  0  0  0  0
  134.3260  133.9190  153.1190 C   0  0  0  0  0  3  0  0  0  0  0  0
  134.7030  134.5040  154.3090 C   0  0  0  0  0  0  0  0  0  0  0  0
  135.5700  135.5700  154.3460 C   0  0  0  0  0  0  0  0  0  0  0  0
  136.1100  136.1120  153.1980 C   0  0  0  0  0  3  0  0  0  0  0  0
  135.8170  135.9900  155.6160 O   0  0  0  0  0  0  0  0  0  0  0  0
  135.0690  135.0150  156.3740 C   0  0  0  0  0  2  0  0  0  0  0  0
  134.2960  134.1190  155.5480 O   0  0  0  0  0  0  0  0  0  0  0  0
  140.1500  137.8000  152.1220 C   0  0  0  0  0  2  0  0  0  0  0  0
  143.5920  136.7380  150.8280 C   0  0  0  0  0  0  0  0  0  0  0  0
  142.2070  136.9450  150.9240 C   0  0  0  0  0  3  0  0  0  0  0  0
  141.6450  137.6080  152.0240 C   0  0  0  0  0  0  0  0  0  0  0  0
  142.4840  138.0500  153.0520 C   0  0  0  0  0  3  0  0  0  0  0  0
  143.8650  137.8360  152.9860 C   0  0  0  0  0  0  0  0  0  0  0  0
  144.4320  137.2110  151.8550 C   0  0  0  0  0  0  0  0  0  0  0  0
  144.4000  136.6640  148.5810 C   0  0  0  0  0  1  0  0  0  0  0  0
  144.1610  136.0050  149.8180 O   0  0  0  0  0  0  0  0  0  0  0  0
  144.7260  138.2550  153.9730 O   0  0  0  0  0  0  0  0  0  0  0  0
  144.3390  139.4390  154.6610 C   0  0  0  0  0  1  0  0  0  0  0  0
  145.8010  137.0560  151.8940 O   0  0  0  0  0  0  0  0  0  0  0  0
  146.5760  138.0370  151.2160 C   0  0  0  0  0  1  0  0  0  0  0  0
  1 16  1  0  0  0  0
  2  1  1  0  0  0  0
  2  4  1  0  0  0  0
  3  2  2  0  0  0  0
  4  5  1  0  0  0  0
  6  4  1  0  0  0  0
  6  7  1  0  0  0  0
  7 12  1  0  0  0  0
  8  7  2  0  0  0  0
  8  9  1  0  0  0  0
  9 10  2  0  0  0  0
 10 11  1  0  0  0  0
 10 15  1  0  0  0  0
 11 13  1  0  0  0  0
 12 11  2  0  0  0  0
 13 14  1  0  0  0  0
 15 14  1  0  0  0  0
 17 18  2  0  0  0  0
 17 22  1  0  0  0  0
 18 19  1  0  0  0  0
 19 16  1  0  0  0  0
 19 20  2  0  0  0  0
 21 20  1  0  0  0  0
 21 25  1  0  0  0  0
 22 27  1  0  0  0  0
 22 21  2  0  0  0  0
 23 24  1  0  0  0  0
 24 17  1  0  0  0  0
 25 26  1  0  0  0  0
 28 27  1  0  0  0  0
M  END
>  <MODEL>
7

>  <REMARK>
 VINA RESULT:    -6.988      5.217      8.163
 INTER + INTRA:         -10.501
 INTER:                  -9.715
 INTRA:                  -0.785
 UNBOUND:                -0.245
  Name = CHEMBL1376090
  11 active torsions:
  status: ('A' for Active; 'I' for Inactive)
    1  A    between atoms: C_1  and  O_2
    2  A    between atoms: O_2  and  C_3
    3  A    between atoms: C_5  and  C_6
    4  A    between atoms: C_6  and  C_7
    5  A    between atoms: C_7  and  C_8
    6  A    between atoms: N_10  and  C_11
    7  A    between atoms: C_11  and  C_12
    8  A    between atoms: C_22  and  O_23
    9  A    between atoms: O_23  and  C_24
   10  A    between atoms: C_25  and  O_26
   11  A    between atoms: O_26  and  C_27
                            x       y       z     vdW  Elec       q    Type
                         _______ _______ _______ _____ _____    ______ ____

>  <TORSDO>
F 8

>  <SCORE>
-6.988

>  <RMSD_LB>
5.217

>  <RMSD_UB>
8.163

$$$$
CHEMBL1376090
 OpenBabel10172500153D

 28 30  0  0  0  0  0  0  0  0999 V2000
  143.9860  136.7810  150.2270 C   0  0  0  0  0  2  0  0  0  0  0  0
  144.3600  138.1400  149.6640 C   0  0  0  0  0  0  0  0  0  0  0  0
  143.5290  138.9220  149.2120 O   0  0  0  0  0  0  0  0  0  0  0  0
  145.7020  138.4180  149.7520 N   0  0  0  0  0  0  0  0  0  0  0  0
  146.3000  137.7380  150.1380 H   0  0  0  0  0  0  0  0  0  0  0  0
  146.2700  139.6690  149.3010 C   0  0  0  0  0  2  0  0  0  0  0  0
  147.0260  140.3470  150.4170 C   0  0  0  0  0  0  0  0  0  0  0  0
  147.4610  141.6840  150.2600 C   0  0  0  0  0  3  0  0  0  0  0  0
  148.1400  142.3470  151.2860 C   0  0  0  0  0  3  0  0  0  0  0  0
  148.3510  141.6620  152.4630 C   0  0  0  0  0  0  0  0  0  0  0  0
  147.9270  140.3650  152.6290 C   0  0  0  0  0  0  0  0  0  0  0  0
  147.2670  139.6790  151.6310 C   0  0  0  0  0  3  0  0  0  0  0  0
  148.2270  139.8780  153.8640 O   0  0  0  0  0  0  0  0  0  0  0  0
  148.8150  141.0450  154.4780 C   0  0  0  0  0  2  0  0  0  0  0  0
  148.9700  142.1550  153.5690 O   0  0  0  0  0  0  0  0  0  0  0  0
  142.5410  136.4150  149.8910 C   0  0  0  0  0  2  0  0  0  0  0  0
  141.0980  138.0100  153.0570 C   0  0  0  0  0  0  0  0  0  0  0  0
  141.9960  137.4570  152.1310 C   0  0  0  0  0  3  0  0  0  0  0  0
  141.5660  137.0320  150.8660 C   0  0  0  0  0  0  0  0  0  0  0  0
  140.2120  137.1450  150.5350 C   0  0  0  0  0  3  0  0  0  0  0  0
  139.2970  137.6750  151.4510 C   0  0  0  0  0  0  0  0  0  0  0  0
  139.7410  138.1460  152.7050 C   0  0  0  0  0  0  0  0  0  0  0  0
  142.6510  139.1080  154.5030 C   0  0  0  0  0  1  0  0  0  0  0  0
  141.4670  138.3400  154.3360 O   0  0  0  0  0  0  0  0  0  0  0  0
  137.9580  137.8060  151.1670 O   0  0  0  0  0  0  0  0  0  0  0  0
  137.6540  138.4150  149.9170 C   0  0  0  0  0  1  0  0  0  0  0  0
  138.7560  138.6520  153.5250 O   0  0  0  0  0  0  0  0  0  0  0  0
  138.6610  138.0930  154.8300 C   0  0  0  0  0  1  0  0  0  0  0  0
  2  4  1  0  0  0  0
  2  1  1  0  0  0  0
  3  2  2  0  0  0  0
  4  5  1  0  0  0  0
  6  4  1  0  0  0  0
  6  7  1  0  0  0  0
  7 12  1  0  0  0  0
  8  7  2  0  0  0  0
  8  9  1  0  0  0  0
  9 10  2  0  0  0  0
 10 11  1  0  0  0  0
 10 15  1  0  0  0  0
 11 13  1  0  0  0  0
 12 11  2  0  0  0  0
 13 14  1  0  0  0  0
 15 14  1  0  0  0  0
 16  1  1  0  0  0  0
 16 19  1  0  0  0  0
 17 24  1  0  0  0  0
 18 17  2  0  0  0  0
 19 18  1  0  0  0  0
 20 19  2  0  0  0  0
 20 21  1  0  0  0  0
 21 22  2  0  0  0  0
 22 17  1  0  0  0  0
 22 27  1  0  0  0  0
 24 23  1  0  0  0  0
 25 21  1  0  0  0  0
 26 25  1  0  0  0  0
 27 28  1  0  0  0  0
M  END
>  <MODEL>
8

>  <REMARK>
 VINA RESULT:    -6.561      7.759     12.087
 INTER + INTRA:          -9.874
 INTER:                  -9.630
 INTRA:                  -0.245
 UNBOUND:                -0.245
  Name = CHEMBL1376090
  11 active torsions:
  status: ('A' for Active; 'I' for Inactive)
    1  A    between atoms: C_1  and  O_2
    2  A    between atoms: O_2  and  C_3
    3  A    between atoms: C_5  and  C_6
    4  A    between atoms: C_6  and  C_7
    5  A    between atoms: C_7  and  C_8
    6  A    between atoms: N_10  and  C_11
    7  A    between atoms: C_11  and  C_12
    8  A    between atoms: C_22  and  O_23
    9  A    between atoms: O_23  and  C_24
   10  A    between atoms: C_25  and  O_26
   11  A    between atoms: O_26  and  C_27
                            x       y       z     vdW  Elec       q    Type
                         _______ _______ _______ _____ _____    ______ ____

>  <TORSDO>
F 8

>  <SCORE>
-6.561

>  <RMSD_LB>
7.759

>  <RMSD_UB>
12.087

$$$$
CHEMBL1376090
 OpenBabel10172500153D

 28 30  0  0  0  0  0  0  0  0999 V2000
  139.5230  136.9860  150.1660 C   0  0  0  0  0  2  0  0  0  0  0  0
  138.0190  136.7870  150.2190 C   0  0  0  0  0  0  0  0  0  0  0  0
  137.3610  136.9680  151.2380 O   0  0  0  0  0  0  0  0  0  0  0  0
  137.4730  136.4310  149.0100 N   0  0  0  0  0  0  0  0  0  0  0  0
  138.0720  136.3160  148.2370 H   0  0  0  0  0  0  0  0  0  0  0  0
  136.0540  136.2190  148.8280 C   0  0  0  0  0  2  0  0  0  0  0  0
  135.8010  135.1020  147.8470 C   0  0  0  0  0  0  0  0  0  0  0  0
  134.5750  135.0500  147.1430 C   0  0  0  0  0  3  0  0  0  0  0  0
  134.3210  134.0420  146.2080 C   0  0  0  0  0  3  0  0  0  0  0  0
  135.3140  133.1130  145.9810 C   0  0  0  0  0  0  0  0  0  0  0  0
  136.5120  133.1580  146.6540 C   0  0  0  0  0  0  0  0  0  0  0  0
  136.7860  134.1320  147.5930 C   0  0  0  0  0  3  0  0  0  0  0  0
  137.3540  132.1580  146.2770 O   0  0  0  0  0  0  0  0  0  0  0  0
  136.5780  131.5320  145.2330 C   0  0  0  0  0  2  0  0  0  0  0  0
  135.2520  132.0830  145.0960 O   0  0  0  0  0  0  0  0  0  0  0  0
  140.0610  137.5260  151.4910 C   0  0  0  0  0  2  0  0  0  0  0  0
  143.6800  136.6300  150.6240 C   0  0  0  0  0  0  0  0  0  0  0  0
  142.2910  136.8060  150.5360 C   0  0  0  0  0  3  0  0  0  0  0  0
  141.5600  137.3680  151.5930 C   0  0  0  0  0  0  0  0  0  0  0  0
  142.2320  137.7390  152.7610 C   0  0  0  0  0  3  0  0  0  0  0  0
  143.6150  137.5540  152.8770 C   0  0  0  0  0  0  0  0  0  0  0  0
  144.3540  137.0330  151.7940 C   0  0  0  0  0  0  0  0  0  0  0  0
  143.7030  135.1460  148.7530 C   0  0  0  0  0  1  0  0  0  0  0  0
  144.4070  135.9910  149.6520 O   0  0  0  0  0  0  0  0  0  0  0  0
  144.3150  137.9070  154.0070 O   0  0  0  0  0  0  0  0  0  0  0  0
  144.2900  139.2910  154.3360 C   0  0  0  0  0  1  0  0  0  0  0  0
  145.7060  136.8980  152.0170 O   0  0  0  0  0  0  0  0  0  0  0  0
  146.5470  137.9130  151.4810 C   0  0  0  0  0  1  0  0  0  0  0  0
  1  2  1  0  0  0  0
  1 16  1  0  0  0  0
  2  3  2  0  0  0  0
  4  2  1  0  0  0  0
  5  4  1  0  0  0  0
  6  4  1  0  0  0  0
  7  6  1  0  0  0  0
  8  7  2  0  0  0  0
  9  8  1  0  0  0  0
 10  9  2  0  0  0  0
 10 11  1  0  0  0  0
 11 12  2  0  0  0  0
 12  7  1  0  0  0  0
 13 11  1  0  0  0  0
 14 13  1  0  0  0  0
 15 14  1  0  0  0  0
 15 10  1  0  0  0  0
 16 19  1  0  0  0  0
 17 22  1  0  0  0  0
 18 17  2  0  0  0  0
 18 19  1  0  0  0  0
 19 20  2  0  0  0  0
 20 21  1  0  0  0  0
 21 25  1  0  0  0  0
 22 27  1  0  0  0  0
 22 21  2  0  0  0  0
 23 24  1  0  0  0  0
 24 17  1  0  0  0  0
 25 26  1  0  0  0  0
 28 27  1  0  0  0  0
M  END
>  <MODEL>
9

>  <REMARK>
 VINA RESULT:    -6.538      5.412      7.124
 INTER + INTRA:          -9.840
 INTER:                  -9.208
 INTRA:                  -0.632
 UNBOUND:                -0.245
  Name = CHEMBL1376090
  11 active torsions:
  status: ('A' for Active; 'I' for Inactive)
    1  A    between atoms: C_1  and  O_2
    2  A    between atoms: O_2  and  C_3
    3  A    between atoms: C_5  and  C_6
    4  A    between atoms: C_6  and  C_7
    5  A    between atoms: C_7  and  C_8
    6  A    between atoms: N_10  and  C_11
    7  A    between atoms: C_11  and  C_12
    8  A    between atoms: C_22  and  O_23
    9  A    between atoms: O_23  and  C_24
   10  A    between atoms: C_25  and  O_26
   11  A    between atoms: O_26  and  C_27
                            x       y       z     vdW  Elec       q    Type
                         _______ _______ _______ _____ _____    ______ ____

>  <TORSDO>
F 8

>  <SCORE>
-6.538

>  <RMSD_LB>
5.412

>  <RMSD_UB>
7.124

$$$$
