CHEMBL1877473
 OpenBabel10172500263D

 26 27  0  0  0  0  0  0  0  0999 V2000
  135.8550  134.9690  154.1900 C   0  0  0  0  0  2  0  0  0  0  0  0
  135.9210  135.7940  157.9230 C   0  0  0  0  0  0  0  0  0  0  0  0
  135.5690  135.2390  156.6810 C   0  0  0  0  0  3  0  0  0  0  0  0
  136.2530  135.5810  155.5100 C   0  0  0  0  0  0  0  0  0  0  0  0
  137.2780  136.5270  155.5740 C   0  0  0  0  0  3  0  0  0  0  0  0
  137.6210  137.1230  156.7930 C   0  0  0  0  0  0  0  0  0  0  0  0
  136.9770  136.7260  157.9860 C   0  0  0  0  0  0  0  0  0  0  0  0
  133.9870  134.8120  158.9100 C   0  0  0  0  0  1  0  0  0  0  0  0
  135.2080  135.5280  159.0630 O   0  0  0  0  0  0  0  0  0  0  0  0
  138.6150  138.0700  156.8940 O   0  0  0  0  0  0  0  0  0  0  0  0
  139.8810  137.6840  156.3650 C   0  0  0  0  0  1  0  0  0  0  0  0
  137.4110  137.3640  159.1260 O   0  0  0  0  0  0  0  0  0  0  0  0
  136.5420  138.3370  159.6930 C   0  0  0  0  0  1  0  0  0  0  0  0
  134.3520  134.7130  154.1140 C   0  0  0  0  0  2  0  0  0  0  0  0
  133.7730  135.3460  152.8680 C   0  0  0  0  0  0  0  0  0  0  0  0
  134.0090  136.4990  152.5320 O   0  0  0  0  0  0  0  0  0  0  0  0
  132.9700  134.4930  152.1410 N   0  0  0  0  0  0  0  0  0  0  0  0
  132.8030  133.5810  152.4700 H   0  0  0  0  0  0  0  0  0  0  0  0
  132.3710  134.9270  150.8990 C   0  0  0  0  0  2  0  0  0  0  0  0
  133.0220  134.2810  149.7000 C   0  0  0  0  0  0  0  0  0  0  0  0
  133.0850  134.9530  148.4670 C   0  0  0  0  0  3  0  0  0  0  0  0
  133.7570  134.3810  147.3830 C   0  0  0  0  0  3  0  0  0  0  0  0
  134.3720  133.1450  147.5330 C   0  0  0  0  0  0  0  0  0  0  0  0
  135.0340  132.6070  146.5000 F   0  0  0  0  0  0  0  0  0  0  0  0
  134.3190  132.4640  148.7410 C   0  0  0  0  0  3  0  0  0  0  0  0
  133.6440  133.0290  149.8250 C   0  0  0  0  0  3  0  0  0  0  0  0
  1  4  1  0  0  0  0
  2  7  1  0  0  0  0
  2  9  1  0  0  0  0
  3  2  2  0  0  0  0
  4  5  2  0  0  0  0
  4  3  1  0  0  0  0
  5  6  1  0  0  0  0
  6 10  1  0  0  0  0
  6  7  2  0  0  0  0
  7 12  1  0  0  0  0
  8  9  1  0  0  0  0
 11 10  1  0  0  0  0
 12 13  1  0  0  0  0
 14  1  1  0  0  0  0
 15 14  1  0  0  0  0
 16 15  2  0  0  0  0
 17 18  1  0  0  0  0
 17 15  1  0  0  0  0
 19 17  1  0  0  0  0
 20 26  1  0  0  0  0
 20 19  1  0  0  0  0
 21 20  2  0  0  0  0
 22 23  2  0  0  0  0
 22 21  1  0  0  0  0
 23 25  1  0  0  0  0
 24 23  1  0  0  0  0
 25 26  2  0  0  0  0
M  END
>  <MODEL>
1

>  <REMARK>
 VINA RESULT:    -7.387      0.000      0.000
 INTER + INTRA:         -11.639
 INTER:                 -11.087
 INTRA:                  -0.552
 UNBOUND:                -0.797
  Name = CHEMBL1877473
  11 active torsions:
  status: ('A' for Active; 'I' for Inactive)
    1  A    between atoms: C_1  and  O_2
    2  A    between atoms: O_2  and  C_3
    3  A    between atoms: C_5  and  C_6
    4  A    between atoms: C_6  and  C_7
    5  A    between atoms: C_7  and  C_8
    6  A    between atoms: N_10  and  C_11
    7  A    between atoms: C_11  and  C_12
    8  A    between atoms: C_20  and  O_21
    9  A    between atoms: O_21  and  C_22
   10  A    between atoms: C_23  and  O_24
   11  A    between atoms: O_24  and  C_25
                            x       y       z     vdW  Elec       q    Type
                         _______ _______ _______ _____ _____    ______ ____

>  <TORSDO>
F 8

>  <SCORE>
-7.387

>  <RMSD_LB>
0.000

>  <RMSD_UB>
0.000

$$$$
CHEMBL1877473
 OpenBabel10172500263D

 26 27  0  0  0  0  0  0  0  0999 V2000
  146.6120  142.6660  150.1760 C   0  0  0  0  0  2  0  0  0  0  0  0
  143.9970  139.8830  150.3580 C   0  0  0  0  0  0  0  0  0  0  0  0
  144.6320  141.1320  150.4640 C   0  0  0  0  0  3  0  0  0  0  0  0
  145.9560  141.3140  150.0520 C   0  0  0  0  0  0  0  0  0  0  0  0
  146.6720  140.2190  149.5650 C   0  0  0  0  0  3  0  0  0  0  0  0
  146.0740  138.9560  149.4850 C   0  0  0  0  0  0  0  0  0  0  0  0
  144.7160  138.7880  149.8370 C   0  0  0  0  0  0  0  0  0  0  0  0
  141.6520  139.9440  149.9390 C   0  0  0  0  0  1  0  0  0  0  0  0
  142.7280  139.6730  150.8310 O   0  0  0  0  0  0  0  0  0  0  0  0
  146.7510  137.8500  149.0250 O   0  0  0  0  0  0  0  0  0  0  0  0
  147.1760  137.9160  147.6660 C   0  0  0  0  0  1  0  0  0  0  0  0
  144.2300  137.5070  149.6980 O   0  0  0  0  0  0  0  0  0  0  0  0
  144.1460  136.7160  150.8780 C   0  0  0  0  0  1  0  0  0  0  0  0
  148.0100  142.5630  150.7830 C   0  0  0  0  0  2  0  0  0  0  0  0
  147.9320  142.0390  152.1990 C   0  0  0  0  0  0  0  0  0  0  0  0
  147.0550  142.3680  152.9860 O   0  0  0  0  0  0  0  0  0  0  0  0
  148.9340  141.1440  152.5100 N   0  0  0  0  0  0  0  0  0  0  0  0
  149.6230  140.9310  151.8400 H   0  0  0  0  0  0  0  0  0  0  0  0
  148.9810  140.5150  153.8100 C   0  0  0  0  0  2  0  0  0  0  0  0
  148.1420  139.2630  153.8650 C   0  0  0  0  0  0  0  0  0  0  0  0
  147.3130  138.9990  154.9700 C   0  0  0  0  0  3  0  0  0  0  0  0
  146.4800  137.8770  154.9790 C   0  0  0  0  0  3  0  0  0  0  0  0
  146.4690  137.0240  153.8830 C   0  0  0  0  0  0  0  0  0  0  0  0
  145.6550  135.9600  153.8830 F   0  0  0  0  0  0  0  0  0  0  0  0
  147.2810  137.2640  152.7830 C   0  0  0  0  0  3  0  0  0  0  0  0
  148.1180  138.3810  152.7730 C   0  0  0  0  0  3  0  0  0  0  0  0
  1 14  1  0  0  0  0
  2  3  1  0  0  0  0
  2  9  1  0  0  0  0
  4  1  1  0  0  0  0
  4  3  2  0  0  0  0
  5  4  1  0  0  0  0
  6  5  2  0  0  0  0
  6  7  1  0  0  0  0
  7  2  2  0  0  0  0
  8  9  1  0  0  0  0
 10  6  1  0  0  0  0
 11 10  1  0  0  0  0
 12  7  1  0  0  0  0
 12 13  1  0  0  0  0
 14 15  1  0  0  0  0
 15 17  1  0  0  0  0
 15 16  2  0  0  0  0
 17 19  1  0  0  0  0
 18 17  1  0  0  0  0
 19 20  1  0  0  0  0
 20 21  1  0  0  0  0
 21 22  2  0  0  0  0
 23 24  1  0  0  0  0
 23 22  1  0  0  0  0
 25 23  2  0  0  0  0
 26 25  1  0  0  0  0
 26 20  2  0  0  0  0
M  END
>  <MODEL>
2

>  <REMARK>
 VINA RESULT:    -6.796     10.471     13.856
 INTER + INTRA:         -10.771
 INTER:                  -9.467
 INTRA:                  -1.304
 UNBOUND:                -0.797
  Name = CHEMBL1877473
  11 active torsions:
  status: ('A' for Active; 'I' for Inactive)
    1  A    between atoms: C_1  and  O_2
    2  A    between atoms: O_2  and  C_3
    3  A    between atoms: C_5  and  C_6
    4  A    between atoms: C_6  and  C_7
    5  A    between atoms: C_7  and  C_8
    6  A    between atoms: N_10  and  C_11
    7  A    between atoms: C_11  and  C_12
    8  A    between atoms: C_20  and  O_21
    9  A    between atoms: O_21  and  C_22
   10  A    between atoms: C_23  and  O_24
   11  A    between atoms: O_24  and  C_25
                            x       y       z     vdW  Elec       q    Type
                         _______ _______ _______ _____ _____    ______ ____

>  <TORSDO>
F 8

>  <SCORE>
-6.796

>  <RMSD_LB>
10.471

>  <RMSD_UB>
13.856

$$$$
CHEMBL1877473
 OpenBabel10172500263D

 26 27  0  0  0  0  0  0  0  0999 V2000
  142.3120  137.3770  151.7670 C   0  0  0  0  0  2  0  0  0  0  0  0
  138.7530  137.9120  150.4750 C   0  0  0  0  0  0  0  0  0  0  0  0
  139.8450  137.6490  151.3190 C   0  0  0  0  0  3  0  0  0  0  0  0
  141.1580  137.6610  150.8390 C   0  0  0  0  0  0  0  0  0  0  0  0
  141.3810  137.8950  149.4800 C   0  0  0  0  0  3  0  0  0  0  0  0
  140.3080  138.1220  148.6110 C   0  0  0  0  0  0  0  0  0  0  0  0
  138.9870  138.1780  149.1100 C   0  0  0  0  0  0  0  0  0  0  0  0
  137.1020  136.6560  151.6470 C   0  0  0  0  0  1  0  0  0  0  0  0
  137.4590  137.8250  150.9170 O   0  0  0  0  0  0  0  0  0  0  0  0
  140.4860  138.3420  147.2640 O   0  0  0  0  0  0  0  0  0  0  0  0
  141.8300  138.2380  146.8020 C   0  0  0  0  0  1  0  0  0  0  0  0
  138.0150  138.4280  148.1680 O   0  0  0  0  0  0  0  0  0  0  0  0
  137.3960  139.7080  148.2020 C   0  0  0  0  0  1  0  0  0  0  0  0
  142.8420  138.6530  152.4190 C   0  0  0  0  0  2  0  0  0  0  0  0
  143.9140  139.2780  151.5550 C   0  0  0  0  0  0  0  0  0  0  0  0
  144.6420  138.6270  150.8170 O   0  0  0  0  0  0  0  0  0  0  0  0
  143.9790  140.6510  151.6670 N   0  0  0  0  0  0  0  0  0  0  0  0
  143.3790  141.1180  152.2910 H   0  0  0  0  0  0  0  0  0  0  0  0
  144.9220  141.4090  150.8760 C   0  0  0  0  0  2  0  0  0  0  0  0
  146.1990  141.6880  151.6300 C   0  0  0  0  0  0  0  0  0  0  0  0
  146.1970  141.8060  153.0310 C   0  0  0  0  0  3  0  0  0  0  0  0
  147.3940  141.9860  153.7280 C   0  0  0  0  0  3  0  0  0  0  0  0
  148.5930  142.0420  153.0280 C   0  0  0  0  0  0  0  0  0  0  0  0
  149.7420  142.1940  153.6990 F   0  0  0  0  0  0  0  0  0  0  0  0
  148.6170  141.9310  151.6450 C   0  0  0  0  0  3  0  0  0  0  0  0
  147.4220  141.7550  150.9450 C   0  0  0  0  0  3  0  0  0  0  0  0
  1 14  1  0  0  0  0
  2  9  1  0  0  0  0
  2  3  1  0  0  0  0
  4  3  2  0  0  0  0
  4  1  1  0  0  0  0
  5  4  1  0  0  0  0
  6  7  1  0  0  0  0
  6  5  2  0  0  0  0
  7  2  2  0  0  0  0
  9  8  1  0  0  0  0
 10  6  1  0  0  0  0
 11 10  1  0  0  0  0
 12 13  1  0  0  0  0
 12  7  1  0  0  0  0
 15 17  1  0  0  0  0
 15 14  1  0  0  0  0
 16 15  2  0  0  0  0
 17 18  1  0  0  0  0
 19 20  1  0  0  0  0
 19 17  1  0  0  0  0
 20 21  1  0  0  0  0
 21 22  2  0  0  0  0
 23 24  1  0  0  0  0
 23 22  1  0  0  0  0
 25 23  2  0  0  0  0
 26 20  2  0  0  0  0
 26 25  1  0  0  0  0
M  END
>  <MODEL>
3

>  <REMARK>
 VINA RESULT:    -6.606      8.513     12.195
 INTER + INTRA:         -10.493
 INTER:                  -9.801
 INTRA:                  -0.692
 UNBOUND:                -0.797
  Name = CHEMBL1877473
  11 active torsions:
  status: ('A' for Active; 'I' for Inactive)
    1  A    between atoms: C_1  and  O_2
    2  A    between atoms: O_2  and  C_3
    3  A    between atoms: C_5  and  C_6
    4  A    between atoms: C_6  and  C_7
    5  A    between atoms: C_7  and  C_8
    6  A    between atoms: N_10  and  C_11
    7  A    between atoms: C_11  and  C_12
    8  A    between atoms: C_20  and  O_21
    9  A    between atoms: O_21  and  C_22
   10  A    between atoms: C_23  and  O_24
   11  A    between atoms: O_24  and  C_25
                            x       y       z     vdW  Elec       q    Type
                         _______ _______ _______ _____ _____    ______ ____

>  <TORSDO>
F 8

>  <SCORE>
-6.606

>  <RMSD_LB>
8.513

>  <RMSD_UB>
12.195

$$$$
CHEMBL1877473
 OpenBabel10172500263D

 26 27  0  0  0  0  0  0  0  0999 V2000
  139.6600  138.8370  152.9700 C   0  0  0  0  0  2  0  0  0  0  0  0
  136.7110  136.4380  152.5620 C   0  0  0  0  0  0  0  0  0  0  0  0
  137.7710  137.3160  152.2800 C   0  0  0  0  0  3  0  0  0  0  0  0
  138.5270  137.8990  153.3010 C   0  0  0  0  0  0  0  0  0  0  0  0
  138.1890  137.6350  154.6310 C   0  0  0  0  0  3  0  0  0  0  0  0
  137.1130  136.7950  154.9380 C   0  0  0  0  0  0  0  0  0  0  0  0
  136.3940  136.1520  153.9060 C   0  0  0  0  0  0  0  0  0  0  0  0
  136.5670  135.2770  150.4860 C   0  0  0  0  0  1  0  0  0  0  0  0
  135.9140  135.9230  151.5730 O   0  0  0  0  0  0  0  0  0  0  0  0
  136.7410  136.5220  156.2350 O   0  0  0  0  0  0  0  0  0  0  0  0
  136.9330  137.5880  157.1610 C   0  0  0  0  0  1  0  0  0  0  0  0
  135.3720  135.3320  154.3280 O   0  0  0  0  0  0  0  0  0  0  0  0
  134.0540  135.8680  154.2830 C   0  0  0  0  0  1  0  0  0  0  0  0
  140.5070  139.1600  154.1990 C   0  0  0  0  0  2  0  0  0  0  0  0
  141.9220  138.6640  154.0090 C   0  0  0  0  0  0  0  0  0  0  0  0
  142.2790  137.5310  154.3030 O   0  0  0  0  0  0  0  0  0  0  0  0
  142.7650  139.6050  153.4570 N   0  0  0  0  0  0  0  0  0  0  0  0
  142.4250  140.5070  153.2570 H   0  0  0  0  0  0  0  0  0  0  0  0
  144.1440  139.2800  153.1690 C   0  0  0  0  0  2  0  0  0  0  0  0
  144.8300  140.3670  152.3810 C   0  0  0  0  0  0  0  0  0  0  0  0
  145.7720  141.2140  152.9920 C   0  0  0  0  0  3  0  0  0  0  0  0
  146.4600  142.1680  152.2380 C   0  0  0  0  0  3  0  0  0  0  0  0
  146.2160  142.2710  150.8750 C   0  0  0  0  0  0  0  0  0  0  0  0
  146.8910  143.1710  150.1490 F   0  0  0  0  0  0  0  0  0  0  0  0
  145.2880  141.4470  150.2520 C   0  0  0  0  0  3  0  0  0  0  0  0
  144.5940  140.4960  151.0030 C   0  0  0  0  0  3  0  0  0  0  0  0
  1  4  1  0  0  0  0
  1 14  1  0  0  0  0
  2  7  1  0  0  0  0
  3  2  2  0  0  0  0
  3  4  1  0  0  0  0
  4  5  2  0  0  0  0
  5  6  1  0  0  0  0
  6 10  1  0  0  0  0
  7 12  1  0  0  0  0
  7  6  2  0  0  0  0
  8  9  1  0  0  0  0
  9  2  1  0  0  0  0
 10 11  1  0  0  0  0
 13 12  1  0  0  0  0
 15 14  1  0  0  0  0
 15 16  2  0  0  0  0
 17 15  1  0  0  0  0
 18 17  1  0  0  0  0
 19 17  1  0  0  0  0
 20 21  1  0  0  0  0
 20 19  1  0  0  0  0
 22 21  2  0  0  0  0
 23 22  1  0  0  0  0
 24 23  1  0  0  0  0
 25 23  2  0  0  0  0
 25 26  1  0  0  0  0
 26 20  2  0  0  0  0
M  END
>  <MODEL>
4

>  <REMARK>
 VINA RESULT:    -6.575      6.176      9.752
 INTER + INTRA:         -10.447
 INTER:                  -9.944
 INTRA:                  -0.503
 UNBOUND:                -0.797
  Name = CHEMBL1877473
  11 active torsions:
  status: ('A' for Active; 'I' for Inactive)
    1  A    between atoms: C_1  and  O_2
    2  A    between atoms: O_2  and  C_3
    3  A    between atoms: C_5  and  C_6
    4  A    between atoms: C_6  and  C_7
    5  A    between atoms: C_7  and  C_8
    6  A    between atoms: N_10  and  C_11
    7  A    between atoms: C_11  and  C_12
    8  A    between atoms: C_20  and  O_21
    9  A    between atoms: O_21  and  C_22
   10  A    between atoms: C_23  and  O_24
   11  A    between atoms: O_24  and  C_25
                            x       y       z     vdW  Elec       q    Type
                         _______ _______ _______ _____ _____    ______ ____

>  <TORSDO>
F 8

>  <SCORE>
-6.575

>  <RMSD_LB>
6.176

>  <RMSD_UB>
9.752

$$$$
CHEMBL1877473
 OpenBabel10172500263D

 26 27  0  0  0  0  0  0  0  0999 V2000
  141.8450  138.0210  152.7630 C   0  0  0  0  0  2  0  0  0  0  0  0
  141.8560  136.2950  149.3510 C   0  0  0  0  0  0  0  0  0  0  0  0
  142.2800  136.8820  150.5550 C   0  0  0  0  0  3  0  0  0  0  0  0
  141.3630  137.3970  151.4770 C   0  0  0  0  0  0  0  0  0  0  0  0
  140.0010  137.3650  151.1700 C   0  0  0  0  0  3  0  0  0  0  0  0
  139.5570  136.8210  149.9590 C   0  0  0  0  0  0  0  0  0  0  0  0
  140.4780  136.2380  149.0600 C   0  0  0  0  0  0  0  0  0  0  0  0
  143.2630  134.5410  148.5620 C   0  0  0  0  0  1  0  0  0  0  0  0
  142.7470  135.8580  148.4050 O   0  0  0  0  0  0  0  0  0  0  0  0
  138.2250  136.7840  149.6150 O   0  0  0  0  0  0  0  0  0  0  0  0
  137.3350  137.3760  150.5570 C   0  0  0  0  0  1  0  0  0  0  0  0
  139.9250  135.7150  147.9130 O   0  0  0  0  0  0  0  0  0  0  0  0
  139.9080  136.5540  146.7640 C   0  0  0  0  0  1  0  0  0  0  0  0
  142.7000  139.2600  152.5070 C   0  0  0  0  0  2  0  0  0  0  0  0
  143.9370  139.2340  153.3760 C   0  0  0  0  0  0  0  0  0  0  0  0
  144.2460  138.2750  154.0710 O   0  0  0  0  0  0  0  0  0  0  0  0
  144.6890  140.3860  153.2960 N   0  0  0  0  0  0  0  0  0  0  0  0
  144.3810  141.1330  152.7330 H   0  0  0  0  0  0  0  0  0  0  0  0
  145.9270  140.5100  154.0330 C   0  0  0  0  0  2  0  0  0  0  0  0
  147.0290  141.1070  153.1930 C   0  0  0  0  0  0  0  0  0  0  0  0
  146.8110  141.4270  151.8410 C   0  0  0  0  0  3  0  0  0  0  0  0
  147.8110  142.0510  151.0910 C   0  0  0  0  0  3  0  0  0  0  0  0
  149.0240  142.3620  151.6920 C   0  0  0  0  0  0  0  0  0  0  0  0
  149.9750  142.9790  150.9780 F   0  0  0  0  0  0  0  0  0  0  0  0
  149.2610  142.0530  153.0240 C   0  0  0  0  0  3  0  0  0  0  0  0
  148.2660  141.4240  153.7750 C   0  0  0  0  0  3  0  0  0  0  0  0
  2  3  1  0  0  0  0
  3  4  2  0  0  0  0
  4  1  1  0  0  0  0
  5  4  1  0  0  0  0
  6  5  2  0  0  0  0
  7  2  2  0  0  0  0
  7  6  1  0  0  0  0
  9  8  1  0  0  0  0
  9  2  1  0  0  0  0
 10  6  1  0  0  0  0
 10 11  1  0  0  0  0
 12  7  1  0  0  0  0
 13 12  1  0  0  0  0
 14  1  1  0  0  0  0
 14 15  1  0  0  0  0
 15 16  2  0  0  0  0
 17 15  1  0  0  0  0
 17 19  1  0  0  0  0
 18 17  1  0  0  0  0
 20 26  1  0  0  0  0
 20 19  1  0  0  0  0
 21 20  2  0  0  0  0
 22 23  2  0  0  0  0
 22 21  1  0  0  0  0
 23 25  1  0  0  0  0
 24 23  1  0  0  0  0
 25 26  2  0  0  0  0
M  END
>  <MODEL>
5

>  <REMARK>
 VINA RESULT:    -6.564      8.583     12.682
 INTER + INTRA:         -10.432
 INTER:                  -9.870
 INTRA:                  -0.562
 UNBOUND:                -0.797
  Name = CHEMBL1877473
  11 active torsions:
  status: ('A' for Active; 'I' for Inactive)
    1  A    between atoms: C_1  and  O_2
    2  A    between atoms: O_2  and  C_3
    3  A    between atoms: C_5  and  C_6
    4  A    between atoms: C_6  and  C_7
    5  A    between atoms: C_7  and  C_8
    6  A    between atoms: N_10  and  C_11
    7  A    between atoms: C_11  and  C_12
    8  A    between atoms: C_20  and  O_21
    9  A    between atoms: O_21  and  C_22
   10  A    between atoms: C_23  and  O_24
   11  A    between atoms: O_24  and  C_25
                            x       y       z     vdW  Elec       q    Type
                         _______ _______ _______ _____ _____    ______ ____

>  <TORSDO>
F 8

>  <SCORE>
-6.564

>  <RMSD_LB>
8.583

>  <RMSD_UB>
12.682

$$$$
CHEMBL1877473
 OpenBabel10172500263D

 26 27  0  0  0  0  0  0  0  0999 V2000
  139.8540  137.2140  150.7460 C   0  0  0  0  0  2  0  0  0  0  0  0
  143.6490  137.1490  151.2140 C   0  0  0  0  0  0  0  0  0  0  0  0
  142.3680  137.0320  150.6490 C   0  0  0  0  0  3  0  0  0  0  0  0
  141.2170  137.3470  151.3780 C   0  0  0  0  0  0  0  0  0  0  0  0
  141.3460  137.7430  152.7110 C   0  0  0  0  0  3  0  0  0  0  0  0
  142.6080  137.8300  153.3090 C   0  0  0  0  0  0  0  0  0  0  0  0
  143.7740  137.5780  152.5510 C   0  0  0  0  0  0  0  0  0  0  0  0
  145.4750  137.7820  149.8210 C   0  0  0  0  0  1  0  0  0  0  0  0
  144.7770  136.7680  150.5360 O   0  0  0  0  0  0  0  0  0  0  0  0
  142.7750  138.2020  154.6240 O   0  0  0  0  0  0  0  0  0  0  0  0
  142.1410  139.4230  154.9970 C   0  0  0  0  0  1  0  0  0  0  0  0
  144.9590  137.7150  153.2380 O   0  0  0  0  0  0  0  0  0  0  0  0
  145.5280  136.5320  153.7870 C   0  0  0  0  0  1  0  0  0  0  0  0
  138.8500  138.1910  151.3550 C   0  0  0  0  0  2  0  0  0  0  0  0
  137.9160  137.4660  152.2970 C   0  0  0  0  0  0  0  0  0  0  0  0
  137.9960  137.5520  153.5150 O   0  0  0  0  0  0  0  0  0  0  0  0
  136.9580  136.7130  151.6520 N   0  0  0  0  0  0  0  0  0  0  0  0
  136.9540  136.6680  150.6680 H   0  0  0  0  0  0  0  0  0  0  0  0
  135.9590  135.9900  152.4060 C   0  0  0  0  0  2  0  0  0  0  0  0
  134.9630  135.2980  151.5090 C   0  0  0  0  0  0  0  0  0  0  0  0
  135.2150  134.0070  151.0130 C   0  0  0  0  0  3  0  0  0  0  0  0
  134.2550  133.3420  150.2470 C   0  0  0  0  0  3  0  0  0  0  0  0
  133.0400  133.9620  149.9830 C   0  0  0  0  0  0  0  0  0  0  0  0
  132.1110  133.3160  149.2660 F   0  0  0  0  0  0  0  0  0  0  0  0
  132.7710  135.2380  150.4600 C   0  0  0  0  0  3  0  0  0  0  0  0
  133.7310  135.9070  151.2220 C   0  0  0  0  0  3  0  0  0  0  0  0
  1 14  1  0  0  0  0
  1  4  1  0  0  0  0
  2  7  1  0  0  0  0
  3  2  2  0  0  0  0
  3  4  1  0  0  0  0
  4  5  2  0  0  0  0
  5  6  1  0  0  0  0
  6 10  1  0  0  0  0
  7 12  1  0  0  0  0
  7  6  2  0  0  0  0
  8  9  1  0  0  0  0
  9  2  1  0  0  0  0
 10 11  1  0  0  0  0
 12 13  1  0  0  0  0
 14 15  1  0  0  0  0
 15 16  2  0  0  0  0
 17 15  1  0  0  0  0
 17 19  1  0  0  0  0
 18 17  1  0  0  0  0
 20 19  1  0  0  0  0
 21 20  2  0  0  0  0
 22 21  1  0  0  0  0
 23 22  2  0  0  0  0
 23 25  1  0  0  0  0
 24 23  1  0  0  0  0
 25 26  2  0  0  0  0
 26 20  1  0  0  0  0
M  END
>  <MODEL>
6

>  <REMARK>
 VINA RESULT:    -6.548      4.822      7.036
 INTER + INTRA:         -10.408
 INTER:                  -9.973
 INTRA:                  -0.436
 UNBOUND:                -0.797
  Name = CHEMBL1877473
  11 active torsions:
  status: ('A' for Active; 'I' for Inactive)
    1  A    between atoms: C_1  and  O_2
    2  A    between atoms: O_2  and  C_3
    3  A    between atoms: C_5  and  C_6
    4  A    between atoms: C_6  and  C_7
    5  A    between atoms: C_7  and  C_8
    6  A    between atoms: N_10  and  C_11
    7  A    between atoms: C_11  and  C_12
    8  A    between atoms: C_20  and  O_21
    9  A    between atoms: O_21  and  C_22
   10  A    between atoms: C_23  and  O_24
   11  A    between atoms: O_24  and  C_25
                            x       y       z     vdW  Elec       q    Type
                         _______ _______ _______ _____ _____    ______ ____

>  <TORSDO>
F 8

>  <SCORE>
-6.548

>  <RMSD_LB>
4.822

>  <RMSD_UB>
7.036

$$$$
CHEMBL1877473
 OpenBabel10172500263D

 26 27  0  0  0  0  0  0  0  0999 V2000
  146.5280  137.6310  149.8780 C   0  0  0  0  0  2  0  0  0  0  0  0
  146.9080  139.1660  153.3590 C   0  0  0  0  0  0  0  0  0  0  0  0
  146.7370  138.2400  152.3160 C   0  0  0  0  0  3  0  0  0  0  0  0
  146.7110  138.6460  150.9780 C   0  0  0  0  0  0  0  0  0  0  0  0
  146.8140  140.0060  150.6780 C   0  0  0  0  0  3  0  0  0  0  0  0
  146.9460  140.9520  151.7020 C   0  0  0  0  0  0  0  0  0  0  0  0
  147.0410  140.5350  153.0480 C   0  0  0  0  0  0  0  0  0  0  0  0
  148.0320  138.2150  155.2310 C   0  0  0  0  0  1  0  0  0  0  0  0
  146.8550  138.7910  154.6760 O   0  0  0  0  0  0  0  0  0  0  0  0
  147.0350  142.3010  151.4480 O   0  0  0  0  0  0  0  0  0  0  0  0
  147.0700  142.6620  150.0700 C   0  0  0  0  0  1  0  0  0  0  0  0
  147.1900  141.5500  153.9660 O   0  0  0  0  0  0  0  0  0  0  0  0
  148.5170  141.8630  154.3740 C   0  0  0  0  0  1  0  0  0  0  0  0
  145.7640  138.2130  148.6900 C   0  0  0  0  0  2  0  0  0  0  0  0
  144.2750  138.0280  148.8810 C   0  0  0  0  0  0  0  0  0  0  0  0
  143.4380  138.7240  148.3220 O   0  0  0  0  0  0  0  0  0  0  0  0
  143.9540  136.9900  149.7310 N   0  0  0  0  0  0  0  0  0  0  0  0
  144.6720  136.4760  150.1660 H   0  0  0  0  0  0  0  0  0  0  0  0
  142.5730  136.6510  149.9890 C   0  0  0  0  0  2  0  0  0  0  0  0
  142.0850  137.2210  151.2980 C   0  0  0  0  0  0  0  0  0  0  0  0
  140.7180  137.4690  151.5090 C   0  0  0  0  0  3  0  0  0  0  0  0
  140.2640  137.9230  152.7500 C   0  0  0  0  0  3  0  0  0  0  0  0
  141.1730  138.1210  153.7820 C   0  0  0  0  0  0  0  0  0  0  0  0
  140.7350  138.5370  154.9770 F   0  0  0  0  0  0  0  0  0  0  0  0
  142.5280  137.8850  153.5940 C   0  0  0  0  0  3  0  0  0  0  0  0
  142.9850  137.4360  152.3530 C   0  0  0  0  0  3  0  0  0  0  0  0
  1  4  1  0  0  0  0
  2  9  1  0  0  0  0
  3  2  2  0  0  0  0
  4  3  1  0  0  0  0
  5  4  2  0  0  0  0
  5  6  1  0  0  0  0
  6  7  2  0  0  0  0
  7  2  1  0  0  0  0
  7 12  1  0  0  0  0
  9  8  1  0  0  0  0
 10  6  1  0  0  0  0
 11 10  1  0  0  0  0
 12 13  1  0  0  0  0
 14 15  1  0  0  0  0
 14  1  1  0  0  0  0
 15 17  1  0  0  0  0
 16 15  2  0  0  0  0
 17 19  1  0  0  0  0
 17 18  1  0  0  0  0
 19 20  1  0  0  0  0
 20 21  2  0  0  0  0
 20 26  1  0  0  0  0
 21 22  1  0  0  0  0
 22 23  2  0  0  0  0
 23 24  1  0  0  0  0
 25 23  1  0  0  0  0
 26 25  2  0  0  0  0
M  END
>  <MODEL>
7

>  <REMARK>
 VINA RESULT:    -6.510      8.478     11.519
 INTER + INTRA:         -10.352
 INTER:                  -9.073
 INTRA:                  -1.279
 UNBOUND:                -0.797
  Name = CHEMBL1877473
  11 active torsions:
  status: ('A' for Active; 'I' for Inactive)
    1  A    between atoms: C_1  and  O_2
    2  A    between atoms: O_2  and  C_3
    3  A    between atoms: C_5  and  C_6
    4  A    between atoms: C_6  and  C_7
    5  A    between atoms: C_7  and  C_8
    6  A    between atoms: N_10  and  C_11
    7  A    between atoms: C_11  and  C_12
    8  A    between atoms: C_20  and  O_21
    9  A    between atoms: O_21  and  C_22
   10  A    between atoms: C_23  and  O_24
   11  A    between atoms: O_24  and  C_25
                            x       y       z     vdW  Elec       q    Type
                         _______ _______ _______ _____ _____    ______ ____

>  <TORSDO>
F 8

>  <SCORE>
-6.510

>  <RMSD_LB>
8.478

>  <RMSD_UB>
11.519

$$$$
CHEMBL1877473
 OpenBabel10172500263D

 26 27  0  0  0  0  0  0  0  0999 V2000
  139.9670  138.1850  150.9450 C   0  0  0  0  0  2  0  0  0  0  0  0
  136.9770  136.8490  152.9190 C   0  0  0  0  0  0  0  0  0  0  0  0
  138.1490  137.5420  152.5700 C   0  0  0  0  0  3  0  0  0  0  0  0
  138.7100  137.4290  151.2940 C   0  0  0  0  0  0  0  0  0  0  0  0
  138.1150  136.5740  150.3640 C   0  0  0  0  0  3  0  0  0  0  0  0
  136.9690  135.8430  150.7000 C   0  0  0  0  0  0  0  0  0  0  0  0
  136.3640  136.0110  151.9660 C   0  0  0  0  0  0  0  0  0  0  0  0
  137.3540  136.5880  155.2570 C   0  0  0  0  0  1  0  0  0  0  0  0
  136.4630  136.8900  154.1890 O   0  0  0  0  0  0  0  0  0  0  0  0
  136.3630  134.9790  149.8170 O   0  0  0  0  0  0  0  0  0  0  0  0
  135.9300  135.5650  148.5920 C   0  0  0  0  0  1  0  0  0  0  0  0
  135.2310  135.2570  152.1770 O   0  0  0  0  0  0  0  0  0  0  0  0
  133.9850  135.9420  152.1440 C   0  0  0  0  0  1  0  0  0  0  0  0
  141.2170  137.4740  151.4590 C   0  0  0  0  0  2  0  0  0  0  0  0
  141.9480  138.3480  152.4530 C   0  0  0  0  0  0  0  0  0  0  0  0
  141.4780  138.6640  153.5380 O   0  0  0  0  0  0  0  0  0  0  0  0
  143.1990  138.7400  152.0250 N   0  0  0  0  0  0  0  0  0  0  0  0
  143.5170  138.4690  151.1340 H   0  0  0  0  0  0  0  0  0  0  0  0
  144.0480  139.5450  152.8740 C   0  0  0  0  0  2  0  0  0  0  0  0
  144.8340  140.5630  152.0870 C   0  0  0  0  0  0  0  0  0  0  0  0
  145.7260  141.4390  152.7300 C   0  0  0  0  0  3  0  0  0  0  0  0
  146.5080  142.3260  151.9870 C   0  0  0  0  0  3  0  0  0  0  0  0
  146.4060  142.3350  150.6020 C   0  0  0  0  0  0  0  0  0  0  0  0
  147.1710  143.1710  149.8880 F   0  0  0  0  0  0  0  0  0  0  0  0
  145.5290  141.4810  149.9460 C   0  0  0  0  0  3  0  0  0  0  0  0
  144.7430  140.5960  150.6860 C   0  0  0  0  0  3  0  0  0  0  0  0
  1  4  1  0  0  0  0
  1 14  1  0  0  0  0
  2  9  1  0  0  0  0
  3  2  1  0  0  0  0
  4  3  2  0  0  0  0
  5  6  2  0  0  0  0
  5  4  1  0  0  0  0
  6  7  1  0  0  0  0
  7 12  1  0  0  0  0
  7  2  2  0  0  0  0
  9  8  1  0  0  0  0
 10  6  1  0  0  0  0
 11 10  1  0  0  0  0
 13 12  1  0  0  0  0
 14 15  1  0  0  0  0
 15 16  2  0  0  0  0
 17 15  1  0  0  0  0
 17 19  1  0  0  0  0
 18 17  1  0  0  0  0
 20 21  1  0  0  0  0
 20 19  1  0  0  0  0
 22 21  2  0  0  0  0
 23 22  1  0  0  0  0
 24 23  1  0  0  0  0
 25 23  2  0  0  0  0
 25 26  1  0  0  0  0
 26 20  2  0  0  0  0
M  END
>  <MODEL>
8

>  <REMARK>
 VINA RESULT:    -6.475      6.588     10.171
 INTER + INTRA:         -10.300
 INTER:                  -9.650
 INTRA:                  -0.650
 UNBOUND:                -0.797
  Name = CHEMBL1877473
  11 active torsions:
  status: ('A' for Active; 'I' for Inactive)
    1  A    between atoms: C_1  and  O_2
    2  A    between atoms: O_2  and  C_3
    3  A    between atoms: C_5  and  C_6
    4  A    between atoms: C_6  and  C_7
    5  A    between atoms: C_7  and  C_8
    6  A    between atoms: N_10  and  C_11
    7  A    between atoms: C_11  and  C_12
    8  A    between atoms: C_20  and  O_21
    9  A    between atoms: O_21  and  C_22
   10  A    between atoms: C_23  and  O_24
   11  A    between atoms: O_24  and  C_25
                            x       y       z     vdW  Elec       q    Type
                         _______ _______ _______ _____ _____    ______ ____

>  <TORSDO>
F 8

>  <SCORE>
-6.475

>  <RMSD_LB>
6.588

>  <RMSD_UB>
10.171

$$$$
CHEMBL1877473
 OpenBabel10172500263D

 26 27  0  0  0  0  0  0  0  0999 V2000
  141.0470  138.2370  151.2190 C   0  0  0  0  0  2  0  0  0  0  0  0
  137.6070  137.2930  152.5970 C   0  0  0  0  0  0  0  0  0  0  0  0
  138.6800  137.5240  151.7190 C   0  0  0  0  0  3  0  0  0  0  0  0
  139.9110  137.9990  152.1820 C   0  0  0  0  0  0  0  0  0  0  0  0
  140.0600  138.2910  153.5400 C   0  0  0  0  0  3  0  0  0  0  0  0
  138.9930  138.1060  154.4280 C   0  0  0  0  0  0  0  0  0  0  0  0
  137.7730  137.5610  153.9710 C   0  0  0  0  0  0  0  0  0  0  0  0
  136.2030  135.5250  151.8360 C   0  0  0  0  0  1  0  0  0  0  0  0
  136.3730  136.9040  152.1450 O   0  0  0  0  0  0  0  0  0  0  0  0
  139.0960  138.3960  155.7690 O   0  0  0  0  0  0  0  0  0  0  0  0
  140.0990  137.6700  156.4750 C   0  0  0  0  0  1  0  0  0  0  0  0
  136.8040  137.4040  154.9370 O   0  0  0  0  0  0  0  0  0  0  0  0
  136.6650  136.1090  155.5080 C   0  0  0  0  0  1  0  0  0  0  0  0
  142.0510  137.0870  151.2310 C   0  0  0  0  0  2  0  0  0  0  0  0
  143.3970  137.5690  151.7230 C   0  0  0  0  0  0  0  0  0  0  0  0
  143.6150  137.8640  152.8910 O   0  0  0  0  0  0  0  0  0  0  0  0
  144.3560  137.6270  150.7340 N   0  0  0  0  0  0  0  0  0  0  0  0
  144.1170  137.3930  149.8080 H   0  0  0  0  0  0  0  0  0  0  0  0
  145.7100  138.0270  151.0440 C   0  0  0  0  0  2  0  0  0  0  0  0
  145.9540  139.4840  150.7380 C   0  0  0  0  0  0  0  0  0  0  0  0
  146.1030  140.4220  151.7750 C   0  0  0  0  0  3  0  0  0  0  0  0
  146.4060  141.7550  151.4850 C   0  0  0  0  0  3  0  0  0  0  0  0
  146.5680  142.1500  150.1630 C   0  0  0  0  0  0  0  0  0  0  0  0
  146.8790  143.4230  149.8870 F   0  0  0  0  0  0  0  0  0  0  0  0
  146.4220  141.2400  149.1240 C   0  0  0  0  0  3  0  0  0  0  0  0
  146.1140  139.9090  149.4100 C   0  0  0  0  0  3  0  0  0  0  0  0
  1 14  1  0  0  0  0
  1  4  1  0  0  0  0
  2  7  1  0  0  0  0
  3  4  1  0  0  0  0
  3  2  2  0  0  0  0
  4  5  2  0  0  0  0
  5  6  1  0  0  0  0
  6 10  1  0  0  0  0
  7  6  2  0  0  0  0
  7 12  1  0  0  0  0
  8  9  1  0  0  0  0
  9  2  1  0  0  0  0
 10 11  1  0  0  0  0
 12 13  1  0  0  0  0
 14 15  1  0  0  0  0
 15 16  2  0  0  0  0
 17 19  1  0  0  0  0
 17 15  1  0  0  0  0
 18 17  1  0  0  0  0
 20 19  1  0  0  0  0
 20 21  1  0  0  0  0
 22 21  2  0  0  0  0
 23 22  1  0  0  0  0
 24 23  1  0  0  0  0
 25 26  1  0  0  0  0
 25 23  2  0  0  0  0
 26 20  2  0  0  0  0
M  END
>  <MODEL>
9

>  <REMARK>
 VINA RESULT:    -6.457      6.974     10.007
 INTER + INTRA:         -10.275
 INTER:                  -9.477
 INTRA:                  -0.797
 UNBOUND:                -0.797
  Name = CHEMBL1877473
  11 active torsions:
  status: ('A' for Active; 'I' for Inactive)
    1  A    between atoms: C_1  and  O_2
    2  A    between atoms: O_2  and  C_3
    3  A    between atoms: C_5  and  C_6
    4  A    between atoms: C_6  and  C_7
    5  A    between atoms: C_7  and  C_8
    6  A    between atoms: N_10  and  C_11
    7  A    between atoms: C_11  and  C_12
    8  A    between atoms: C_20  and  O_21
    9  A    between atoms: O_21  and  C_22
   10  A    between atoms: C_23  and  O_24
   11  A    between atoms: O_24  and  C_25
                            x       y       z     vdW  Elec       q    Type
                         _______ _______ _______ _____ _____    ______ ____

>  <TORSDO>
F 8

>  <SCORE>
-6.457

>  <RMSD_LB>
6.974

>  <RMSD_UB>
10.007

$$$$
