CHEMBL4535032
 OpenBabel10162523563D

 25 26  0  0  0  0  0  0  0  0999 V2000
  135.1660  135.7570  153.0700 C   0  0  0  0  0  0  0  0  0  0  0  0
  134.2330  136.1140  153.7770 O   0  0  0  0  0  0  0  0  0  0  0  0
  135.0570  134.8770  152.0250 N   0  0  0  0  0  0  0  0  0  0  0  0
  135.8570  134.6700  151.4900 H   0  0  0  0  0  0  0  0  0  0  0  0
  137.1410  137.0220  152.3480 C   0  0  0  0  0  3  0  0  0  0  0  0
  136.5570  136.2410  153.2720 C   0  0  0  0  0  3  0  0  0  0  0  0
  140.3050  138.6480  153.6970 C   0  0  0  0  0  0  0  0  0  0  0  0
  141.1660  138.4690  152.6160 C   0  0  0  0  0  3  0  0  0  0  0  0
  140.7120  137.8260  151.4620 C   0  0  0  0  0  3  0  0  0  0  0  0
  139.3940  137.3670  151.3830 C   0  0  0  0  0  3  0  0  0  0  0  0
  138.5090  137.5540  152.4520 C   0  0  0  0  0  0  0  0  0  0  0  0
  138.9860  138.1890  153.6070 C   0  0  0  0  0  3  0  0  0  0  0  0
  141.9950  139.2930  155.2410 C   0  0  0  0  0  1  0  0  0  0  0  0
  140.6190  139.2440  154.8890 O   0  0  0  0  0  0  0  0  0  0  0  0
  133.8040  134.2390  151.6820 C   0  0  0  0  0  2  0  0  0  0  0  0
  133.7190  133.9790  150.2020 C   0  0  0  0  0  0  0  0  0  0  0  0
  134.0110  132.7110  149.6900 C   0  0  0  0  0  3  0  0  0  0  0  0
  133.9350  132.4670  148.3160 C   0  0  0  0  0  3  0  0  0  0  0  0
  133.5440  133.4860  147.4430 C   0  0  0  0  0  0  0  0  0  0  0  0
  133.2140  134.7510  147.9380 C   0  0  0  0  0  0  0  0  0  0  0  0
  133.3220  134.9910  149.3150 C   0  0  0  0  0  3  0  0  0  0  0  0
  133.5170  133.2210  146.1010 O   0  0  0  0  0  0  0  0  0  0  0  0
  132.9140  132.5910  145.7600 H   0  0  0  0  0  0  0  0  0  0  0  0
  132.8280  135.8480  147.2140 O   0  0  0  0  0  0  0  0  0  0  0  0
  132.6460  137.0530  147.9480 C   0  0  0  0  0  1  0  0  0  0  0  0
  1  6  1  0  0  0  0
  1  2  2  0  0  0  0
  3  1  1  0  0  0  0
  4  3  1  0  0  0  0
  5 11  1  0  0  0  0
  5  6  2  0  0  0  0
  7 14  1  0  0  0  0
  8  7  2  0  0  0  0
  9  8  1  0  0  0  0
 10  9  2  0  0  0  0
 10 11  1  0  0  0  0
 11 12  2  0  0  0  0
 12  7  1  0  0  0  0
 14 13  1  0  0  0  0
 15  3  1  0  0  0  0
 16 15  1  0  0  0  0
 17 16  1  0  0  0  0
 18 17  2  0  0  0  0
 19 20  2  0  0  0  0
 19 18  1  0  0  0  0
 20 21  1  0  0  0  0
 21 16  2  0  0  0  0
 22 19  1  0  0  0  0
 23 22  1  0  0  0  0
 24 20  1  0  0  0  0
 24 25  1  0  0  0  0
M  END
>  <MODEL>
1

>  <REMARK>
 VINA RESULT:    -7.411      0.000      0.000
 INTER + INTRA:         -10.917
 INTER:                 -10.406
 INTRA:                  -0.512
 UNBOUND:                -0.690
  Name = CHEMBL4535032
  9 active torsions:
  status: ('A' for Active; 'I' for Inactive)
    1  A    between atoms: C_1  and  O_2
    2  A    between atoms: O_2  and  C_3
    3  A    between atoms: C_7  and  C_8
    4  A    between atoms: C_9  and  C_10
    5  A    between atoms: N_12  and  C_13
    6  A    between atoms: C_13  and  C_14
    7  A    between atoms: C_17  and  O_18
    8  A    between atoms: C_19  and  O_20
    9  A    between atoms: O_20  and  C_21
                            x       y       z     vdW  Elec       q    Type
                         _______ _______ _______ _____ _____    ______ ____

>  <TORSDO>
F 7

>  <SCORE>
-7.411

>  <RMSD_LB>
0.000

>  <RMSD_UB>
0.000

$$$$
CHEMBL4535032
 OpenBabel10162523563D

 25 26  0  0  0  0  0  0  0  0999 V2000
  134.5280  134.4070  154.3900 C   0  0  0  0  0  0  0  0  0  0  0  0
  134.3230  133.4910  155.1750 O   0  0  0  0  0  0  0  0  0  0  0  0
  135.3950  135.4440  154.6140 N   0  0  0  0  0  0  0  0  0  0  0  0
  135.5200  136.1210  153.9110 H   0  0  0  0  0  0  0  0  0  0  0  0
  134.5280  134.3410  151.9370 C   0  0  0  0  0  3  0  0  0  0  0  0
  133.8380  134.5060  153.0770 C   0  0  0  0  0  3  0  0  0  0  0  0
  133.1670  135.6850  148.6490 C   0  0  0  0  0  0  0  0  0  0  0  0
  132.9050  134.4940  147.9740 C   0  0  0  0  0  3  0  0  0  0  0  0
  133.1690  133.2700  148.5920 C   0  0  0  0  0  3  0  0  0  0  0  0
  133.6900  133.2330  149.8890 C   0  0  0  0  0  3  0  0  0  0  0  0
  133.9430  134.4180  150.5890 C   0  0  0  0  0  0  0  0  0  0  0  0
  133.6840  135.6370  149.9480 C   0  0  0  0  0  3  0  0  0  0  0  0
  132.6820  137.0650  146.7740 C   0  0  0  0  0  1  0  0  0  0  0  0
  132.9720  136.9480  148.1600 O   0  0  0  0  0  0  0  0  0  0  0  0
  136.1340  135.5770  155.8500 C   0  0  0  0  0  2  0  0  0  0  0  0
  137.3240  136.4820  155.6730 C   0  0  0  0  0  0  0  0  0  0  0  0
  138.2190  136.6870  156.7290 C   0  0  0  0  0  3  0  0  0  0  0  0
  139.3230  137.5280  156.5680 C   0  0  0  0  0  3  0  0  0  0  0  0
  139.5540  138.1570  155.3410 C   0  0  0  0  0  0  0  0  0  0  0  0
  138.6900  137.9390  154.2640 C   0  0  0  0  0  0  0  0  0  0  0  0
  137.5710  137.1150  154.4460 C   0  0  0  0  0  3  0  0  0  0  0  0
  140.6230  139.0030  155.2320 O   0  0  0  0  0  0  0  0  0  0  0  0
  140.4840  139.9170  155.0850 H   0  0  0  0  0  0  0  0  0  0  0  0
  138.7750  138.4880  153.0110 O   0  0  0  0  0  0  0  0  0  0  0  0
  139.5430  137.7630  152.0580 C   0  0  0  0  0  1  0  0  0  0  0  0
  1  3  1  0  0  0  0
  1  2  2  0  0  0  0
  3 15  1  0  0  0  0
  4  3  1  0  0  0  0
  5  6  2  0  0  0  0
  6  1  1  0  0  0  0
  7 12  1  0  0  0  0
  8  9  1  0  0  0  0
  8  7  2  0  0  0  0
  9 10  2  0  0  0  0
 10 11  1  0  0  0  0
 11  5  1  0  0  0  0
 12 11  2  0  0  0  0
 13 14  1  0  0  0  0
 14  7  1  0  0  0  0
 16 15  1  0  0  0  0
 16 17  1  0  0  0  0
 18 17  2  0  0  0  0
 19 18  1  0  0  0  0
 20 21  1  0  0  0  0
 20 19  2  0  0  0  0
 21 16  2  0  0  0  0
 22 19  1  0  0  0  0
 23 22  1  0  0  0  0
 24 20  1  0  0  0  0
 25 24  1  0  0  0  0
M  END
>  <MODEL>
2

>  <REMARK>
 VINA RESULT:    -7.341      1.879      8.249
 INTER + INTRA:         -10.821
 INTER:                 -10.233
 INTRA:                  -0.588
 UNBOUND:                -0.690
  Name = CHEMBL4535032
  9 active torsions:
  status: ('A' for Active; 'I' for Inactive)
    1  A    between atoms: C_1  and  O_2
    2  A    between atoms: O_2  and  C_3
    3  A    between atoms: C_7  and  C_8
    4  A    between atoms: C_9  and  C_10
    5  A    between atoms: N_12  and  C_13
    6  A    between atoms: C_13  and  C_14
    7  A    between atoms: C_17  and  O_18
    8  A    between atoms: C_19  and  O_20
    9  A    between atoms: O_20  and  C_21
                            x       y       z     vdW  Elec       q    Type
                         _______ _______ _______ _____ _____    ______ ____

>  <TORSDO>
F 7

>  <SCORE>
-7.341

>  <RMSD_LB>
1.879

>  <RMSD_UB>
8.249

$$$$
CHEMBL4535032
 OpenBabel10162523563D

 25 26  0  0  0  0  0  0  0  0999 V2000
  134.4950  133.7410  154.0150 C   0  0  0  0  0  0  0  0  0  0  0  0
  134.1500  132.6280  154.3890 O   0  0  0  0  0  0  0  0  0  0  0  0
  134.8100  134.7800  154.8510 N   0  0  0  0  0  0  0  0  0  0  0  0
  135.1080  135.6330  154.4610 H   0  0  0  0  0  0  0  0  0  0  0  0
  133.8370  133.4900  151.6650 C   0  0  0  0  0  3  0  0  0  0  0  0
  134.6060  134.1050  152.5780 C   0  0  0  0  0  3  0  0  0  0  0  0
  133.8450  135.3260  148.3330 C   0  0  0  0  0  0  0  0  0  0  0  0
  134.0240  134.2600  147.4530 C   0  0  0  0  0  3  0  0  0  0  0  0
  134.1380  132.9590  147.9480 C   0  0  0  0  0  3  0  0  0  0  0  0
  134.0650  132.7190  149.3230 C   0  0  0  0  0  3  0  0  0  0  0  0
  133.8680  133.7750  150.2210 C   0  0  0  0  0  0  0  0  0  0  0  0
  133.7700  135.0750  149.7070 C   0  0  0  0  0  3  0  0  0  0  0  0
  132.5400  137.0410  147.3260 C   0  0  0  0  0  1  0  0  0  0  0  0
  133.7350  136.6460  147.9890 O   0  0  0  0  0  0  0  0  0  0  0  0
  134.7190  134.6650  156.2910 C   0  0  0  0  0  2  0  0  0  0  0  0
  135.6140  135.6670  156.9700 C   0  0  0  0  0  0  0  0  0  0  0  0
  136.0130  135.4730  158.2970 C   0  0  0  0  0  3  0  0  0  0  0  0
  136.8410  136.4020  158.9310 C   0  0  0  0  0  3  0  0  0  0  0  0
  137.2960  137.5260  158.2350 C   0  0  0  0  0  0  0  0  0  0  0  0
  136.9370  137.7210  156.8980 C   0  0  0  0  0  0  0  0  0  0  0  0
  136.0830  136.7960  156.2820 C   0  0  0  0  0  3  0  0  0  0  0  0
  138.0750  138.4340  158.8980 O   0  0  0  0  0  0  0  0  0  0  0  0
  138.0760  138.4540  159.8350 H   0  0  0  0  0  0  0  0  0  0  0  0
  137.2900  138.7710  156.0910 O   0  0  0  0  0  0  0  0  0  0  0  0
  138.1600  138.4650  155.0080 C   0  0  0  0  0  1  0  0  0  0  0  0
  1  2  2  0  0  0  0
  1  3  1  0  0  0  0
  3 15  1  0  0  0  0
  4  3  1  0  0  0  0
  5  6  2  0  0  0  0
  6  1  1  0  0  0  0
  7 12  1  0  0  0  0
  8  9  1  0  0  0  0
  8  7  2  0  0  0  0
  9 10  2  0  0  0  0
 10 11  1  0  0  0  0
 11  5  1  0  0  0  0
 12 11  2  0  0  0  0
 13 14  1  0  0  0  0
 14  7  1  0  0  0  0
 15 16  1  0  0  0  0
 16 17  1  0  0  0  0
 17 18  2  0  0  0  0
 19 22  1  0  0  0  0
 19 18  1  0  0  0  0
 20 19  2  0  0  0  0
 21 20  1  0  0  0  0
 21 16  2  0  0  0  0
 22 23  1  0  0  0  0
 24 20  1  0  0  0  0
 25 24  1  0  0  0  0
M  END
>  <MODEL>
3

>  <REMARK>
 VINA RESULT:    -7.328      2.995      8.668
 INTER + INTRA:         -10.803
 INTER:                 -10.335
 INTRA:                  -0.469
 UNBOUND:                -0.690
  Name = CHEMBL4535032
  9 active torsions:
  status: ('A' for Active; 'I' for Inactive)
    1  A    between atoms: C_1  and  O_2
    2  A    between atoms: O_2  and  C_3
    3  A    between atoms: C_7  and  C_8
    4  A    between atoms: C_9  and  C_10
    5  A    between atoms: N_12  and  C_13
    6  A    between atoms: C_13  and  C_14
    7  A    between atoms: C_17  and  O_18
    8  A    between atoms: C_19  and  O_20
    9  A    between atoms: O_20  and  C_21
                            x       y       z     vdW  Elec       q    Type
                         _______ _______ _______ _____ _____    ______ ____

>  <TORSDO>
F 7

>  <SCORE>
-7.328

>  <RMSD_LB>
2.995

>  <RMSD_UB>
8.668

$$$$
CHEMBL4535032
 OpenBabel10162523563D

 25 26  0  0  0  0  0  0  0  0999 V2000
  139.1930  138.4870  154.4760 C   0  0  0  0  0  0  0  0  0  0  0  0
  138.7840  139.6400  154.5100 O   0  0  0  0  0  0  0  0  0  0  0  0
  138.8630  137.5180  155.3870 N   0  0  0  0  0  0  0  0  0  0  0  0
  139.2140  136.6070  155.2630 H   0  0  0  0  0  0  0  0  0  0  0  0
  141.4490  138.0440  153.6190 C   0  0  0  0  0  3  0  0  0  0  0  0
  140.1210  137.9950  153.4230 C   0  0  0  0  0  3  0  0  0  0  0  0
  144.7380  136.9720  152.0350 C   0  0  0  0  0  0  0  0  0  0  0  0
  144.3030  136.6120  150.7610 C   0  0  0  0  0  3  0  0  0  0  0  0
  142.9510  136.7220  150.4280 C   0  0  0  0  0  3  0  0  0  0  0  0
  142.0310  137.2000  151.3660 C   0  0  0  0  0  3  0  0  0  0  0  0
  142.4520  137.5840  152.6450 C   0  0  0  0  0  0  0  0  0  0  0  0
  143.8100  137.4530  152.9660 C   0  0  0  0  0  3  0  0  0  0  0  0
  146.1940  136.6230  153.8830 C   0  0  0  0  0  1  0  0  0  0  0  0
  146.0230  136.9010  152.4990 O   0  0  0  0  0  0  0  0  0  0  0  0
  138.0140  137.7890  156.5270 C   0  0  0  0  0  2  0  0  0  0  0  0
  136.9050  136.7760  156.6270 C   0  0  0  0  0  0  0  0  0  0  0  0
  136.2900  136.2850  155.4700 C   0  0  0  0  0  3  0  0  0  0  0  0
  135.2590  135.3470  155.5600 C   0  0  0  0  0  3  0  0  0  0  0  0
  134.8470  134.8730  156.8090 C   0  0  0  0  0  0  0  0  0  0  0  0
  135.4720  135.3250  157.9750 C   0  0  0  0  0  0  0  0  0  0  0  0
  136.4860  136.2880  157.8740 C   0  0  0  0  0  3  0  0  0  0  0  0
  133.8100  133.9840  156.8610 O   0  0  0  0  0  0  0  0  0  0  0  0
  133.7020  133.3490  156.1810 H   0  0  0  0  0  0  0  0  0  0  0  0
  135.1760  134.9680  159.2650 O   0  0  0  0  0  0  0  0  0  0  0  0
  134.2560  135.8060  159.9540 C   0  0  0  0  0  1  0  0  0  0  0  0
  1  2  2  0  0  0  0
  1  3  1  0  0  0  0
  3 15  1  0  0  0  0
  4  3  1  0  0  0  0
  6  5  2  0  0  0  0
  6  1  1  0  0  0  0
  7 14  1  0  0  0  0
  7 12  1  0  0  0  0
  8  7  2  0  0  0  0
  9  8  1  0  0  0  0
  9 10  2  0  0  0  0
 10 11  1  0  0  0  0
 11 12  2  0  0  0  0
 11  5  1  0  0  0  0
 14 13  1  0  0  0  0
 15 16  1  0  0  0  0
 16 21  1  0  0  0  0
 17 18  1  0  0  0  0
 17 16  2  0  0  0  0
 18 19  2  0  0  0  0
 19 22  1  0  0  0  0
 19 20  1  0  0  0  0
 20 24  1  0  0  0  0
 21 20  2  0  0  0  0
 23 22  1  0  0  0  0
 24 25  1  0  0  0  0
M  END
>  <MODEL>
4

>  <REMARK>
 VINA RESULT:    -7.202      5.545      7.277
 INTER + INTRA:         -10.630
 INTER:                 -10.084
 INTRA:                  -0.546
 UNBOUND:                -0.690
  Name = CHEMBL4535032
  9 active torsions:
  status: ('A' for Active; 'I' for Inactive)
    1  A    between atoms: C_1  and  O_2
    2  A    between atoms: O_2  and  C_3
    3  A    between atoms: C_7  and  C_8
    4  A    between atoms: C_9  and  C_10
    5  A    between atoms: N_12  and  C_13
    6  A    between atoms: C_13  and  C_14
    7  A    between atoms: C_17  and  O_18
    8  A    between atoms: C_19  and  O_20
    9  A    between atoms: O_20  and  C_21
                            x       y       z     vdW  Elec       q    Type
                         _______ _______ _______ _____ _____    ______ ____

>  <TORSDO>
F 7

>  <SCORE>
-7.202

>  <RMSD_LB>
5.545

>  <RMSD_UB>
7.277

$$$$
CHEMBL4535032
 OpenBabel10162523563D

 25 26  0  0  0  0  0  0  0  0999 V2000
  139.7700  138.5070  155.0180 C   0  0  0  0  0  0  0  0  0  0  0  0
  139.5760  139.6340  154.5810 O   0  0  0  0  0  0  0  0  0  0  0  0
  140.9710  137.8500  154.9710 N   0  0  0  0  0  0  0  0  0  0  0  0
  141.0430  136.9560  155.3770 H   0  0  0  0  0  0  0  0  0  0  0  0
  137.7150  137.1710  154.9100 C   0  0  0  0  0  3  0  0  0  0  0  0
  138.6970  137.7000  155.6570 C   0  0  0  0  0  3  0  0  0  0  0  0
  134.5190  135.1230  155.1650 C   0  0  0  0  0  0  0  0  0  0  0  0
  134.5720  134.7290  156.5000 C   0  0  0  0  0  3  0  0  0  0  0  0
  135.6410  135.1330  157.3040 C   0  0  0  0  0  3  0  0  0  0  0  0
  136.6550  135.9370  156.7760 C   0  0  0  0  0  3  0  0  0  0  0  0
  136.6090  136.3580  155.4420 C   0  0  0  0  0  0  0  0  0  0  0  0
  135.5360  135.9320  154.6470 C   0  0  0  0  0  3  0  0  0  0  0  0
  133.9730  134.3870  152.9700 C   0  0  0  0  0  1  0  0  0  0  0  0
  133.5440  134.7900  154.2640 O   0  0  0  0  0  0  0  0  0  0  0  0
  142.1410  138.4270  154.3440 C   0  0  0  0  0  2  0  0  0  0  0  0
  142.3820  137.8190  152.9890 C   0  0  0  0  0  0  0  0  0  0  0  0
  141.3170  137.6250  152.1010 C   0  0  0  0  0  3  0  0  0  0  0  0
  141.5370  137.0580  150.8440 C   0  0  0  0  0  3  0  0  0  0  0  0
  142.8310  136.6990  150.4520 C   0  0  0  0  0  0  0  0  0  0  0  0
  143.9130  136.9150  151.3100 C   0  0  0  0  0  0  0  0  0  0  0  0
  143.6750  137.4590  152.5800 C   0  0  0  0  0  3  0  0  0  0  0  0
  143.0030  136.1120  149.2290 O   0  0  0  0  0  0  0  0  0  0  0  0
  142.7060  136.5470  148.4550 H   0  0  0  0  0  0  0  0  0  0  0  0
  145.2280  136.6080  151.0780 O   0  0  0  0  0  0  0  0  0  0  0  0
  146.1800  137.2430  151.9230 C   0  0  0  0  0  1  0  0  0  0  0  0
  1  6  1  0  0  0  0
  2  1  2  0  0  0  0
  3  1  1  0  0  0  0
  3  4  1  0  0  0  0
  5 11  1  0  0  0  0
  5  6  2  0  0  0  0
  7  8  1  0  0  0  0
  8  9  2  0  0  0  0
 10  9  1  0  0  0  0
 11 10  2  0  0  0  0
 12  7  2  0  0  0  0
 12 11  1  0  0  0  0
 13 14  1  0  0  0  0
 14  7  1  0  0  0  0
 15  3  1  0  0  0  0
 16 15  1  0  0  0  0
 17 16  2  0  0  0  0
 18 17  1  0  0  0  0
 19 18  2  0  0  0  0
 19 20  1  0  0  0  0
 20 21  2  0  0  0  0
 21 16  1  0  0  0  0
 22 19  1  0  0  0  0
 23 22  1  0  0  0  0
 24 20  1  0  0  0  0
 24 25  1  0  0  0  0
M  END
>  <MODEL>
5

>  <REMARK>
 VINA RESULT:    -7.043      3.972      8.760
 INTER + INTRA:         -10.410
 INTER:                  -9.887
 INTRA:                  -0.523
 UNBOUND:                -0.690
  Name = CHEMBL4535032
  9 active torsions:
  status: ('A' for Active; 'I' for Inactive)
    1  A    between atoms: C_1  and  O_2
    2  A    between atoms: O_2  and  C_3
    3  A    between atoms: C_7  and  C_8
    4  A    between atoms: C_9  and  C_10
    5  A    between atoms: N_12  and  C_13
    6  A    between atoms: C_13  and  C_14
    7  A    between atoms: C_17  and  O_18
    8  A    between atoms: C_19  and  O_20
    9  A    between atoms: O_20  and  C_21
                            x       y       z     vdW  Elec       q    Type
                         _______ _______ _______ _____ _____    ______ ____

>  <TORSDO>
F 7

>  <SCORE>
-7.043

>  <RMSD_LB>
3.972

>  <RMSD_UB>
8.760

$$$$
CHEMBL4535032
 OpenBabel10162523563D

 25 26  0  0  0  0  0  0  0  0999 V2000
  138.9690  138.6470  154.6150 C   0  0  0  0  0  0  0  0  0  0  0  0
  138.8930  139.7730  154.1410 O   0  0  0  0  0  0  0  0  0  0  0  0
  140.1410  138.0230  154.9540 N   0  0  0  0  0  0  0  0  0  0  0  0
  140.1040  137.1270  155.3600 H   0  0  0  0  0  0  0  0  0  0  0  0
  137.7690  136.9340  155.8990 C   0  0  0  0  0  3  0  0  0  0  0  0
  137.7720  137.8040  154.8760 C   0  0  0  0  0  3  0  0  0  0  0  0
  135.2050  134.9320  157.8710 C   0  0  0  0  0  0  0  0  0  0  0  0
  134.4080  134.4460  156.8370 C   0  0  0  0  0  3  0  0  0  0  0  0
  134.7110  134.7700  155.5120 C   0  0  0  0  0  3  0  0  0  0  0  0
  135.8150  135.5740  155.2180 C   0  0  0  0  0  3  0  0  0  0  0  0
  136.6380  136.0570  156.2430 C   0  0  0  0  0  0  0  0  0  0  0  0
  136.3110  135.7330  157.5670 C   0  0  0  0  0  3  0  0  0  0  0  0
  136.0230  135.1880  160.0900 C   0  0  0  0  0  1  0  0  0  0  0  0
  135.0170  134.7070  159.2080 O   0  0  0  0  0  0  0  0  0  0  0  0
  141.4320  138.6380  154.7360 C   0  0  0  0  0  2  0  0  0  0  0  0
  142.1120  138.0520  153.5270 C   0  0  0  0  0  0  0  0  0  0  0  0
  141.3660  137.7160  152.3920 C   0  0  0  0  0  3  0  0  0  0  0  0
  141.9930  137.1690  151.2690 C   0  0  0  0  0  3  0  0  0  0  0  0
  143.3780  136.9740  151.2640 C   0  0  0  0  0  0  0  0  0  0  0  0
  144.1450  137.3360  152.3750 C   0  0  0  0  0  0  0  0  0  0  0  0
  143.5010  137.8570  153.5060 C   0  0  0  0  0  3  0  0  0  0  0  0
  143.9520  136.4030  150.1620 O   0  0  0  0  0  0  0  0  0  0  0  0
  143.5530  135.6590  149.7590 H   0  0  0  0  0  0  0  0  0  0  0  0
  145.5000  137.1980  152.5260 O   0  0  0  0  0  0  0  0  0  0  0  0
  145.9330  136.4480  153.6550 C   0  0  0  0  0  1  0  0  0  0  0  0
  1  6  1  0  0  0  0
  1  3  1  0  0  0  0
  2  1  2  0  0  0  0
  3  4  1  0  0  0  0
  5 11  1  0  0  0  0
  6  5  2  0  0  0  0
  7 14  1  0  0  0  0
  8  7  2  0  0  0  0
  9  8  1  0  0  0  0
 10  9  2  0  0  0  0
 10 11  1  0  0  0  0
 11 12  2  0  0  0  0
 12  7  1  0  0  0  0
 14 13  1  0  0  0  0
 15  3  1  0  0  0  0
 16 15  1  0  0  0  0
 17 16  2  0  0  0  0
 18 17  1  0  0  0  0
 19 18  2  0  0  0  0
 19 20  1  0  0  0  0
 20 24  1  0  0  0  0
 20 21  2  0  0  0  0
 21 16  1  0  0  0  0
 22 19  1  0  0  0  0
 23 22  1  0  0  0  0
 24 25  1  0  0  0  0
M  END
>  <MODEL>
6

>  <REMARK>
 VINA RESULT:    -6.973      5.618      8.971
 INTER + INTRA:         -10.313
 INTER:                  -9.792
 INTRA:                  -0.521
 UNBOUND:                -0.690
  Name = CHEMBL4535032
  9 active torsions:
  status: ('A' for Active; 'I' for Inactive)
    1  A    between atoms: C_1  and  O_2
    2  A    between atoms: O_2  and  C_3
    3  A    between atoms: C_7  and  C_8
    4  A    between atoms: C_9  and  C_10
    5  A    between atoms: N_12  and  C_13
    6  A    between atoms: C_13  and  C_14
    7  A    between atoms: C_17  and  O_18
    8  A    between atoms: C_19  and  O_20
    9  A    between atoms: O_20  and  C_21
                            x       y       z     vdW  Elec       q    Type
                         _______ _______ _______ _____ _____    ______ ____

>  <TORSDO>
F 7

>  <SCORE>
-6.973

>  <RMSD_LB>
5.618

>  <RMSD_UB>
8.971

$$$$
CHEMBL4535032
 OpenBabel10162523563D

 25 26  0  0  0  0  0  0  0  0999 V2000
  137.2610  136.9270  152.6510 C   0  0  0  0  0  0  0  0  0  0  0  0
  138.2240  137.5690  152.2510 O   0  0  0  0  0  0  0  0  0  0  0  0
  136.3850  136.2540  151.8410 N   0  0  0  0  0  0  0  0  0  0  0  0
  135.6550  135.7370  152.2530 H   0  0  0  0  0  0  0  0  0  0  0  0
  136.2180  135.7530  154.5370 C   0  0  0  0  0  3  0  0  0  0  0  0
  136.9190  136.8100  154.0930 C   0  0  0  0  0  3  0  0  0  0  0  0
  136.1130  135.9340  158.3350 C   0  0  0  0  0  0  0  0  0  0  0  0
  134.9790  135.1670  158.5970 C   0  0  0  0  0  3  0  0  0  0  0  0
  134.2630  134.5990  157.5410 C   0  0  0  0  0  3  0  0  0  0  0  0
  134.6830  134.7890  156.2220 C   0  0  0  0  0  3  0  0  0  0  0  0
  135.8290  135.5410  155.9400 C   0  0  0  0  0  0  0  0  0  0  0  0
  136.5280  136.1150  157.0110 C   0  0  0  0  0  3  0  0  0  0  0  0
  136.3900  137.7620  159.8310 C   0  0  0  0  0  1  0  0  0  0  0  0
  136.8960  136.5600  159.2670 O   0  0  0  0  0  0  0  0  0  0  0  0
  136.4960  136.2770  150.3990 C   0  0  0  0  0  2  0  0  0  0  0  0
  135.3150  135.6000  149.7560 C   0  0  0  0  0  0  0  0  0  0  0  0
  135.1210  134.2230  149.9070 C   0  0  0  0  0  3  0  0  0  0  0  0
  134.0270  133.5920  149.3090 C   0  0  0  0  0  3  0  0  0  0  0  0
  133.1030  134.3380  148.5720 C   0  0  0  0  0  0  0  0  0  0  0  0
  133.2590  135.7200  148.4380 C   0  0  0  0  0  0  0  0  0  0  0  0
  134.3760  136.3380  149.0180 C   0  0  0  0  0  3  0  0  0  0  0  0
  132.0650  133.6810  147.9700 O   0  0  0  0  0  0  0  0  0  0  0  0
  132.0910  132.7500  147.8770 H   0  0  0  0  0  0  0  0  0  0  0  0
  132.4510  136.5820  147.7420 O   0  0  0  0  0  0  0  0  0  0  0  0
  133.0810  137.3480  146.7230 C   0  0  0  0  0  1  0  0  0  0  0  0
  1  6  1  0  0  0  0
  2  1  2  0  0  0  0
  3  4  1  0  0  0  0
  3  1  1  0  0  0  0
  5 11  1  0  0  0  0
  6  5  2  0  0  0  0
  7  8  1  0  0  0  0
  7 14  1  0  0  0  0
  9  8  2  0  0  0  0
 10  9  1  0  0  0  0
 11 10  2  0  0  0  0
 11 12  1  0  0  0  0
 12  7  2  0  0  0  0
 14 13  1  0  0  0  0
 15  3  1  0  0  0  0
 16 17  1  0  0  0  0
 16 15  1  0  0  0  0
 18 17  2  0  0  0  0
 19 18  1  0  0  0  0
 20 19  2  0  0  0  0
 20 21  1  0  0  0  0
 21 16  2  0  0  0  0
 22 19  1  0  0  0  0
 23 22  1  0  0  0  0
 24 20  1  0  0  0  0
 25 24  1  0  0  0  0
M  END
>  <MODEL>
7

>  <REMARK>
 VINA RESULT:    -6.963      3.251      4.618
 INTER + INTRA:         -10.300
 INTER:                  -9.767
 INTRA:                  -0.533
 UNBOUND:                -0.690
  Name = CHEMBL4535032
  9 active torsions:
  status: ('A' for Active; 'I' for Inactive)
    1  A    between atoms: C_1  and  O_2
    2  A    between atoms: O_2  and  C_3
    3  A    between atoms: C_7  and  C_8
    4  A    between atoms: C_9  and  C_10
    5  A    between atoms: N_12  and  C_13
    6  A    between atoms: C_13  and  C_14
    7  A    between atoms: C_17  and  O_18
    8  A    between atoms: C_19  and  O_20
    9  A    between atoms: O_20  and  C_21
                            x       y       z     vdW  Elec       q    Type
                         _______ _______ _______ _____ _____    ______ ____

>  <TORSDO>
F 7

>  <SCORE>
-6.963

>  <RMSD_LB>
3.251

>  <RMSD_UB>
4.618

$$$$
CHEMBL4535032
 OpenBabel10162523563D

 25 26  0  0  0  0  0  0  0  0999 V2000
  143.2380  139.8290  150.3300 C   0  0  0  0  0  0  0  0  0  0  0  0
  142.5990  140.2490  149.3750 O   0  0  0  0  0  0  0  0  0  0  0  0
  142.9850  138.6460  150.9740 N   0  0  0  0  0  0  0  0  0  0  0  0
  143.5720  138.3720  151.7160 H   0  0  0  0  0  0  0  0  0  0  0  0
  145.6140  140.0410  150.9020 C   0  0  0  0  0  3  0  0  0  0  0  0
  144.3820  140.5730  150.9200 C   0  0  0  0  0  3  0  0  0  0  0  0
  148.5240  140.9410  153.1820 C   0  0  0  0  0  0  0  0  0  0  0  0
  149.1570  141.9190  152.4160 C   0  0  0  0  0  3  0  0  0  0  0  0
  148.6330  142.2770  151.1710 C   0  0  0  0  0  3  0  0  0  0  0  0
  147.4720  141.6640  150.6930 C   0  0  0  0  0  3  0  0  0  0  0  0
  146.8120  140.6930  151.4560 C   0  0  0  0  0  0  0  0  0  0  0  0
  147.3590  140.3370  152.6960 C   0  0  0  0  0  3  0  0  0  0  0  0
  148.2540  139.3520  154.9300 C   0  0  0  0  0  1  0  0  0  0  0  0
  148.9330  140.4850  154.4050 O   0  0  0  0  0  0  0  0  0  0  0  0
  141.8840  137.7860  150.6020 C   0  0  0  0  0  2  0  0  0  0  0  0
  140.7430  137.9170  151.5750 C   0  0  0  0  0  0  0  0  0  0  0  0
  139.4360  137.6150  151.1770 C   0  0  0  0  0  3  0  0  0  0  0  0
  138.3750  137.7390  152.0770 C   0  0  0  0  0  3  0  0  0  0  0  0
  138.6140  138.1460  153.3930 C   0  0  0  0  0  0  0  0  0  0  0  0
  139.9160  138.4190  153.8200 C   0  0  0  0  0  0  0  0  0  0  0  0
  140.9690  138.3190  152.9000 C   0  0  0  0  0  3  0  0  0  0  0  0
  137.5470  138.2920  154.2350 O   0  0  0  0  0  0  0  0  0  0  0  0
  137.6800  138.3070  155.1620 H   0  0  0  0  0  0  0  0  0  0  0  0
  140.3080  138.8360  155.0660 O   0  0  0  0  0  0  0  0  0  0  0  0
  141.6940  139.1170  155.2260 C   0  0  0  0  0  1  0  0  0  0  0  0
  1  6  1  0  0  0  0
  1  3  1  0  0  0  0
  2  1  2  0  0  0  0
  3  4  1  0  0  0  0
  5  6  2  0  0  0  0
  5 11  1  0  0  0  0
  7 14  1  0  0  0  0
  8  7  2  0  0  0  0
  9  8  1  0  0  0  0
 10  9  2  0  0  0  0
 10 11  1  0  0  0  0
 11 12  2  0  0  0  0
 12  7  1  0  0  0  0
 14 13  1  0  0  0  0
 15  3  1  0  0  0  0
 15 16  1  0  0  0  0
 16 21  1  0  0  0  0
 17 16  2  0  0  0  0
 17 18  1  0  0  0  0
 18 19  2  0  0  0  0
 19 20  1  0  0  0  0
 19 22  1  0  0  0  0
 20 24  1  0  0  0  0
 21 20  2  0  0  0  0
 22 23  1  0  0  0  0
 24 25  1  0  0  0  0
M  END
>  <MODEL>
8

>  <REMARK>
 VINA RESULT:    -6.947      5.502      9.133
 INTER + INTRA:         -10.278
 INTER:                  -9.642
 INTRA:                  -0.636
 UNBOUND:                -0.690
  Name = CHEMBL4535032
  9 active torsions:
  status: ('A' for Active; 'I' for Inactive)
    1  A    between atoms: C_1  and  O_2
    2  A    between atoms: O_2  and  C_3
    3  A    between atoms: C_7  and  C_8
    4  A    between atoms: C_9  and  C_10
    5  A    between atoms: N_12  and  C_13
    6  A    between atoms: C_13  and  C_14
    7  A    between atoms: C_17  and  O_18
    8  A    between atoms: C_19  and  O_20
    9  A    between atoms: O_20  and  C_21
                            x       y       z     vdW  Elec       q    Type
                         _______ _______ _______ _____ _____    ______ ____

>  <TORSDO>
F 7

>  <SCORE>
-6.947

>  <RMSD_LB>
5.502

>  <RMSD_UB>
9.133

$$$$
CHEMBL4535032
 OpenBabel10162523563D

 25 26  0  0  0  0  0  0  0  0999 V2000
  137.9460  137.0940  151.2670 C   0  0  0  0  0  0  0  0  0  0  0  0
  139.0600  137.4000  150.8640 O   0  0  0  0  0  0  0  0  0  0  0  0
  137.5040  137.2860  152.5490 N   0  0  0  0  0  0  0  0  0  0  0  0
  136.5790  137.0370  152.7770 H   0  0  0  0  0  0  0  0  0  0  0  0
  135.9070  135.7710  150.9370 C   0  0  0  0  0  3  0  0  0  0  0  0
  136.9240  136.4590  150.3940 C   0  0  0  0  0  3  0  0  0  0  0  0
  133.0980  135.1160  148.4560 C   0  0  0  0  0  0  0  0  0  0  0  0
  132.8890  133.7530  148.6590 C   0  0  0  0  0  3  0  0  0  0  0  0
  133.6580  133.0620  149.5980 C   0  0  0  0  0  3  0  0  0  0  0  0
  134.6330  133.7330  150.3420 C   0  0  0  0  0  3  0  0  0  0  0  0
  134.8440  135.1060  150.1650 C   0  0  0  0  0  0  0  0  0  0  0  0
  134.0720  135.7800  149.2090 C   0  0  0  0  0  3  0  0  0  0  0  0
  133.0160  137.1680  147.2580 C   0  0  0  0  0  1  0  0  0  0  0  0
  132.4300  135.9100  147.5630 O   0  0  0  0  0  0  0  0  0  0  0  0
  138.3510  137.8410  153.5820 C   0  0  0  0  0  2  0  0  0  0  0  0
  137.8880  137.4130  154.9490 C   0  0  0  0  0  0  0  0  0  0  0  0
  138.4480  137.9860  156.0960 C   0  0  0  0  0  3  0  0  0  0  0  0
  138.0220  137.5880  157.3660 C   0  0  0  0  0  3  0  0  0  0  0  0
  137.0140  136.6290  157.5000 C   0  0  0  0  0  0  0  0  0  0  0  0
  136.4180  136.0700  156.3670 C   0  0  0  0  0  0  0  0  0  0  0  0
  136.8730  136.4550  155.0980 C   0  0  0  0  0  3  0  0  0  0  0  0
  136.6480  136.2380  158.7590 O   0  0  0  0  0  0  0  0  0  0  0  0
  136.2650  136.8560  159.3480 H   0  0  0  0  0  0  0  0  0  0  0  0
  135.4330  135.1160  156.3340 O   0  0  0  0  0  0  0  0  0  0  0  0
  134.5980  135.1160  155.1820 C   0  0  0  0  0  1  0  0  0  0  0  0
  1  3  1  0  0  0  0
  2  1  2  0  0  0  0
  3  4  1  0  0  0  0
  3 15  1  0  0  0  0
  6  5  2  0  0  0  0
  6  1  1  0  0  0  0
  7  8  2  0  0  0  0
  7 12  1  0  0  0  0
  8  9  1  0  0  0  0
  9 10  2  0  0  0  0
 11 10  1  0  0  0  0
 11  5  1  0  0  0  0
 12 11  2  0  0  0  0
 13 14  1  0  0  0  0
 14  7  1  0  0  0  0
 15 16  1  0  0  0  0
 16 21  2  0  0  0  0
 16 17  1  0  0  0  0
 17 18  2  0  0  0  0
 18 19  1  0  0  0  0
 19 22  1  0  0  0  0
 20 19  2  0  0  0  0
 21 20  1  0  0  0  0
 22 23  1  0  0  0  0
 24 20  1  0  0  0  0
 25 24  1  0  0  0  0
M  END
>  <MODEL>
9

>  <REMARK>
 VINA RESULT:    -6.811      2.598      8.402
 INTER + INTRA:         -10.089
 INTER:                  -9.398
 INTRA:                  -0.690
 UNBOUND:                -0.690
  Name = CHEMBL4535032
  9 active torsions:
  status: ('A' for Active; 'I' for Inactive)
    1  A    between atoms: C_1  and  O_2
    2  A    between atoms: O_2  and  C_3
    3  A    between atoms: C_7  and  C_8
    4  A    between atoms: C_9  and  C_10
    5  A    between atoms: N_12  and  C_13
    6  A    between atoms: C_13  and  C_14
    7  A    between atoms: C_17  and  O_18
    8  A    between atoms: C_19  and  O_20
    9  A    between atoms: O_20  and  C_21
                            x       y       z     vdW  Elec       q    Type
                         _______ _______ _______ _____ _____    ______ ____

>  <TORSDO>
F 7

>  <SCORE>
-6.811

>  <RMSD_LB>
2.598

>  <RMSD_UB>
8.402

$$$$
