CHEMBL316172
 OpenBabel10172500553D

 26 27  0  0  1  0  0  0  0  0999 V2000
  147.0000  138.8400  150.2340 N   0  0  0  0  0  0  0  0  0  0  0  0
  146.0530  139.6620  149.6570 C   0  0  0  0  0  0  0  0  0  0  0  0
  144.8480  139.4810  149.7700 O   0  0  0  0  0  0  0  0  0  0  0  0
  147.9550  139.0450  150.1100 H   0  0  0  0  0  0  0  0  0  0  0  0
  146.6220  137.6840  151.0150 C   0  0  0  0  0  2  0  0  0  0  0  0
  145.5960  138.8180  154.5150 C   0  0  0  0  0  0  0  0  0  0  0  0
  145.5600  138.5350  153.1470 C   0  0  0  0  0  3  0  0  0  0  0  0
  146.6860  137.9970  152.4900 C   0  0  0  0  0  0  0  0  0  0  0  0
  147.8510  137.7440  153.2250 C   0  0  0  0  0  3  0  0  0  0  0  0
  147.8930  138.0190  154.5920 C   0  0  0  0  0  3  0  0  0  0  0  0
  146.7730  138.5500  155.2280 C   0  0  0  0  0  0  0  0  0  0  0  0
  143.2630  139.2990  154.6620 C   0  0  0  0  0  1  0  0  0  0  0  0
  144.5580  139.3400  155.2410 O   0  0  0  0  0  0  0  0  0  0  0  0
  146.8170  138.8170  156.5720 O   0  0  0  0  0  0  0  0  0  0  0  0
  146.3930  139.5790  156.9120 H   0  0  0  0  0  0  0  0  0  0  0  0
  146.6640  140.7930  148.8360 C   0  0  1  0  0  3  0  0  0  0  0  0
  145.9670  140.8970  147.4690 C   0  0  0  0  0  2  0  0  0  0  0  0
  146.3040  139.5070  146.3350 S   0  0  0  0  0  0  0  0  0  0  0  0
  145.2750  138.6180  146.3900 H   0  0  0  0  0  0  0  0  0  0  0  0
  146.5060  142.1380  149.5730 C   0  0  0  0  0  2  0  0  0  0  0  0
  146.8930  142.1420  151.0360 C   0  0  0  0  0  0  0  0  0  0  0  0
  145.9400  142.2970  152.0490 C   0  0  0  0  0  3  0  0  0  0  0  0
  146.3160  142.2180  153.3940 C   0  0  0  0  0  3  0  0  0  0  0  0
  147.6460  141.9810  153.7390 C   0  0  0  0  0  3  0  0  0  0  0  0
  148.6060  141.8380  152.7390 C   0  0  0  0  0  3  0  0  0  0  0  0
  148.2320  141.9210  151.3970 C   0  0  0  0  0  3  0  0  0  0  0  0
  1  5  1  0  0  0  0
  2  3  2  0  0  0  0
  2  1  1  0  0  0  0
  4  1  1  0  0  0  0
  5  8  1  0  0  0  0
  6 11  1  0  0  0  0
  6 13  1  0  0  0  0
  7  6  2  0  0  0  0
  8  7  1  0  0  0  0
  8  9  2  0  0  0  0
  9 10  1  0  0  0  0
 10 11  2  0  0  0  0
 11 14  1  0  0  0  0
 12 13  1  0  0  0  0
 14 15  1  0  0  0  0
 16 17  1  6  0  0  0
 16 20  1  0  0  0  0
 16  2  1  0  0  0  0
 18 19  1  0  0  0  0
 18 17  1  0  0  0  0
 20 21  1  0  0  0  0
 21 26  2  0  0  0  0
 21 22  1  0  0  0  0
 22 23  2  0  0  0  0
 23 24  1  0  0  0  0
 25 24  2  0  0  0  0
 26 25  1  0  0  0  0
M  END
>  <MODEL>
1

>  <REMARK>
 VINA RESULT:    -7.689      0.000      0.000
 INTER + INTRA:         -12.089
 INTER:                 -10.269
 INTRA:                  -1.820
 UNBOUND:                -0.804
  Name = CHEMBL316172
  10 active torsions:
  status: ('A' for Active; 'I' for Inactive)
    1  A    between atoms: C_1  and  O_2
    2  A    between atoms: O_2  and  C_3
    3  A    between atoms: C_5  and  C_6
    4  A    between atoms: C_6  and  N_7
    5  A    between atoms: C_8  and  C_10
    6  A    between atoms: C_10  and  C_11
    7  A    between atoms: C_10  and  C_13
    8  A    between atoms: C_11  and  S_12
    9  A    between atoms: C_13  and  C_14
   10  A    between atoms: C_22  and  O_23
                            x       y       z     vdW  Elec       q    Type
                         _______ _______ _______ _____ _____    ______ ____

>  <TORSDO>
F 9

>  <SCORE>
-7.689

>  <RMSD_LB>
0.000

>  <RMSD_UB>
0.000

$$$$
CHEMBL316172
 OpenBabel10172500553D

 26 27  0  0  1  0  0  0  0  0999 V2000
  144.9930  139.6160  149.8570 N   0  0  0  0  0  0  0  0  0  0  0  0
  146.3180  139.6180  149.4730 C   0  0  0  0  0  0  0  0  0  0  0  0
  147.0850  138.6900  149.6970 O   0  0  0  0  0  0  0  0  0  0  0  0
  144.4280  140.3930  149.6400 H   0  0  0  0  0  0  0  0  0  0  0  0
  144.4160  138.5010  150.5720 C   0  0  0  0  0  2  0  0  0  0  0  0
  145.6090  138.8690  154.1820 C   0  0  0  0  0  0  0  0  0  0  0  0
  145.5920  138.6110  152.8090 C   0  0  0  0  0  3  0  0  0  0  0  0
  144.4100  138.7700  152.0570 C   0  0  0  0  0  0  0  0  0  0  0  0
  143.2410  139.1940  152.7020 C   0  0  0  0  0  3  0  0  0  0  0  0
  143.2500  139.4590  154.0720 C   0  0  0  0  0  3  0  0  0  0  0  0
  144.4270  139.2970  154.8020 C   0  0  0  0  0  0  0  0  0  0  0  0
  147.4670  137.5510  154.8940 C   0  0  0  0  0  1  0  0  0  0  0  0
  146.7040  138.7440  154.9950 O   0  0  0  0  0  0  0  0  0  0  0  0
  144.4330  139.5600  156.1470 O   0  0  0  0  0  0  0  0  0  0  0  0
  145.2180  139.4400  156.6430 H   0  0  0  0  0  0  0  0  0  0  0  0
  146.7370  140.9080  148.7760 C   0  0  1  0  0  3  0  0  0  0  0  0
  146.0670  141.0110  147.3950 C   0  0  0  0  0  2  0  0  0  0  0  0
  146.4430  139.6320  146.2610 S   0  0  0  0  0  0  0  0  0  0  0  0
  146.9850  140.1230  145.1140 H   0  0  0  0  0  0  0  0  0  0  0  0
  146.3240  142.1320  149.6160 C   0  0  0  0  0  2  0  0  0  0  0  0
  146.7940  142.1380  151.0550 C   0  0  0  0  0  0  0  0  0  0  0  0
  145.9060  142.3260  152.1190 C   0  0  0  0  0  3  0  0  0  0  0  0
  146.3560  142.2480  153.4420 C   0  0  0  0  0  3  0  0  0  0  0  0
  147.6970  141.9800  153.7120 C   0  0  0  0  0  3  0  0  0  0  0  0
  148.5940  141.8030  152.6590 C   0  0  0  0  0  3  0  0  0  0  0  0
  148.1460  141.8850  151.3410 C   0  0  0  0  0  3  0  0  0  0  0  0
  1  5  1  0  0  0  0
  2  3  2  0  0  0  0
  2  1  1  0  0  0  0
  4  1  1  0  0  0  0
  5  8  1  0  0  0  0
  6 11  1  0  0  0  0
  6 13  1  0  0  0  0
  7  6  2  0  0  0  0
  8  9  2  0  0  0  0
  8  7  1  0  0  0  0
  9 10  1  0  0  0  0
 10 11  2  0  0  0  0
 11 14  1  0  0  0  0
 12 13  1  0  0  0  0
 14 15  1  0  0  0  0
 16 17  1  6  0  0  0
 16  2  1  0  0  0  0
 16 20  1  0  0  0  0
 18 17  1  0  0  0  0
 19 18  1  0  0  0  0
 20 21  1  0  0  0  0
 21 26  2  0  0  0  0
 21 22  1  0  0  0  0
 22 23  2  0  0  0  0
 23 24  1  0  0  0  0
 25 24  2  0  0  0  0
 26 25  1  0  0  0  0
M  END
>  <MODEL>
2

>  <REMARK>
 VINA RESULT:    -7.276      1.100      2.173
 INTER + INTRA:         -11.482
 INTER:                  -9.802
 INTRA:                  -1.679
 UNBOUND:                -0.804
  Name = CHEMBL316172
  10 active torsions:
  status: ('A' for Active; 'I' for Inactive)
    1  A    between atoms: C_1  and  O_2
    2  A    between atoms: O_2  and  C_3
    3  A    between atoms: C_5  and  C_6
    4  A    between atoms: C_6  and  N_7
    5  A    between atoms: C_8  and  C_10
    6  A    between atoms: C_10  and  C_11
    7  A    between atoms: C_10  and  C_13
    8  A    between atoms: C_11  and  S_12
    9  A    between atoms: C_13  and  C_14
   10  A    between atoms: C_22  and  O_23
                            x       y       z     vdW  Elec       q    Type
                         _______ _______ _______ _____ _____    ______ ____

>  <TORSDO>
F 9

>  <SCORE>
-7.276

>  <RMSD_LB>
1.100

>  <RMSD_UB>
2.173

$$$$
CHEMBL316172
 OpenBabel10172500553D

 26 27  0  0  1  0  0  0  0  0999 V2000
  143.1610  138.2820  150.7580 N   0  0  0  0  0  0  0  0  0  0  0  0
  144.4470  138.5100  151.2030 C   0  0  0  0  0  0  0  0  0  0  0  0
  145.0460  137.7480  151.9510 O   0  0  0  0  0  0  0  0  0  0  0  0
  142.7390  138.9330  150.1510 H   0  0  0  0  0  0  0  0  0  0  0  0
  142.4190  137.1100  151.1630 C   0  0  0  0  0  2  0  0  0  0  0  0
  140.2220  138.2940  154.0550 C   0  0  0  0  0  0  0  0  0  0  0  0
  141.3370  137.9120  153.3040 C   0  0  0  0  0  3  0  0  0  0  0  0
  141.2000  137.5050  151.9610 C   0  0  0  0  0  0  0  0  0  0  0  0
  139.9270  137.4870  151.3780 C   0  0  0  0  0  3  0  0  0  0  0  0
  138.8090  137.8720  152.1180 C   0  0  0  0  0  3  0  0  0  0  0  0
  138.9600  138.2730  153.4450 C   0  0  0  0  0  0  0  0  0  0  0  0
  140.4680  137.7140  156.3560 C   0  0  0  0  0  1  0  0  0  0  0  0
  140.2520  138.7030  155.3610 O   0  0  0  0  0  0  0  0  0  0  0  0
  137.8600  138.6520  154.1690 O   0  0  0  0  0  0  0  0  0  0  0  0
  137.9650  139.1510  154.9530 H   0  0  0  0  0  0  0  0  0  0  0  0
  145.0300  139.8260  150.6970 C   0  0  1  0  0  3  0  0  0  0  0  0
  144.2030  140.3580  149.5150 C   0  0  0  0  0  2  0  0  0  0  0  0
  144.8230  139.8680  147.8700 S   0  0  0  0  0  0  0  0  0  0  0  0
  143.7710  139.6530  147.0340 H   0  0  0  0  0  0  0  0  0  0  0  0
  145.0220  140.8840  151.8190 C   0  0  0  0  0  2  0  0  0  0  0  0
  146.3780  141.3070  152.3410 C   0  0  0  0  0  0  0  0  0  0  0  0
  146.5900  141.5930  153.6940 C   0  0  0  0  0  3  0  0  0  0  0  0
  147.8710  141.9050  154.1620 C   0  0  0  0  0  3  0  0  0  0  0  0
  148.9520  141.9330  153.2820 C   0  0  0  0  0  3  0  0  0  0  0  0
  148.7510  141.6620  151.9300 C   0  0  0  0  0  3  0  0  0  0  0  0
  147.4730  141.3550  151.4630 C   0  0  0  0  0  3  0  0  0  0  0  0
  1  5  1  0  0  0  0
  1  2  1  0  0  0  0
  2  3  2  0  0  0  0
  4  1  1  0  0  0  0
  5  8  1  0  0  0  0
  6 13  1  0  0  0  0
  7  6  2  0  0  0  0
  8  7  1  0  0  0  0
  9  8  2  0  0  0  0
  9 10  1  0  0  0  0
 10 11  2  0  0  0  0
 11  6  1  0  0  0  0
 11 14  1  0  0  0  0
 13 12  1  0  0  0  0
 14 15  1  0  0  0  0
 16 17  1  6  0  0  0
 16  2  1  0  0  0  0
 16 20  1  0  0  0  0
 18 17  1  0  0  0  0
 19 18  1  0  0  0  0
 20 21  1  0  0  0  0
 21 22  1  0  0  0  0
 22 23  2  0  0  0  0
 24 23  1  0  0  0  0
 25 24  2  0  0  0  0
 26 25  1  0  0  0  0
 26 21  2  0  0  0  0
M  END
>  <MODEL>
3

>  <REMARK>
 VINA RESULT:    -6.996      3.282      4.682
 INTER + INTRA:         -11.071
 INTER:                 -10.265
 INTRA:                  -0.806
 UNBOUND:                -0.804
  Name = CHEMBL316172
  10 active torsions:
  status: ('A' for Active; 'I' for Inactive)
    1  A    between atoms: C_1  and  O_2
    2  A    between atoms: O_2  and  C_3
    3  A    between atoms: C_5  and  C_6
    4  A    between atoms: C_6  and  N_7
    5  A    between atoms: C_8  and  C_10
    6  A    between atoms: C_10  and  C_11
    7  A    between atoms: C_10  and  C_13
    8  A    between atoms: C_11  and  S_12
    9  A    between atoms: C_13  and  C_14
   10  A    between atoms: C_22  and  O_23
                            x       y       z     vdW  Elec       q    Type
                         _______ _______ _______ _____ _____    ______ ____

>  <TORSDO>
F 9

>  <SCORE>
-6.996

>  <RMSD_LB>
3.282

>  <RMSD_UB>
4.682

$$$$
CHEMBL316172
 OpenBabel10172500553D

 26 27  0  0  1  0  0  0  0  0999 V2000
  144.4270  140.0960  151.6560 N   0  0  0  0  0  0  0  0  0  0  0  0
  144.4280  138.9640  150.8660 C   0  0  0  0  0  0  0  0  0  0  0  0
  144.7900  138.9600  149.6970 O   0  0  0  0  0  0  0  0  0  0  0  0
  144.1300  140.0290  152.5920 H   0  0  0  0  0  0  0  0  0  0  0  0
  144.8530  141.3770  151.1400 C   0  0  0  0  0  2  0  0  0  0  0  0
  148.1030  141.4780  153.1440 C   0  0  0  0  0  0  0  0  0  0  0  0
  146.7740  141.2450  152.7800 C   0  0  0  0  0  3  0  0  0  0  0  0
  146.2870  141.6520  151.5200 C   0  0  0  0  0  0  0  0  0  0  0  0
  147.1530  142.2950  150.6270 C   0  0  0  0  0  3  0  0  0  0  0  0
  148.4820  142.5270  150.9800 C   0  0  0  0  0  3  0  0  0  0  0  0
  148.9500  142.1200  152.2290 C   0  0  0  0  0  0  0  0  0  0  0  0
  148.4120  139.8150  154.8270 C   0  0  0  0  0  1  0  0  0  0  0  0
  148.6680  141.1230  154.3400 O   0  0  0  0  0  0  0  0  0  0  0  0
  150.2570  142.3470  152.5720 O   0  0  0  0  0  0  0  0  0  0  0  0
  150.7780  142.9370  152.0650 H   0  0  0  0  0  0  0  0  0  0  0  0
  143.8970  137.7300  151.5890 C   0  0  1  0  0  3  0  0  0  0  0  0
  145.0620  136.8800  152.1230 C   0  0  0  0  0  2  0  0  0  0  0  0
  145.5320  137.2320  153.8510 S   0  0  0  0  0  0  0  0  0  0  0  0
  146.0320  136.1040  154.4230 H   0  0  0  0  0  0  0  0  0  0  0  0
  143.0050  138.1450  152.7760 C   0  0  0  0  0  2  0  0  0  0  0  0
  141.5160  137.9420  152.5890 C   0  0  0  0  0  0  0  0  0  0  0  0
  140.5990  138.2510  153.6000 C   0  0  0  0  0  3  0  0  0  0  0  0
  139.2240  138.1280  153.3720 C   0  0  0  0  0  3  0  0  0  0  0  0
  138.7540  137.6980  152.1320 C   0  0  0  0  0  3  0  0  0  0  0  0
  139.6590  137.3760  151.1220 C   0  0  0  0  0  3  0  0  0  0  0  0
  141.0300  137.4950  151.3510 C   0  0  0  0  0  3  0  0  0  0  0  0
  1  4  1  0  0  0  0
  2 16  1  0  0  0  0
  2  1  1  0  0  0  0
  3  2  2  0  0  0  0
  5  8  1  0  0  0  0
  5  1  1  0  0  0  0
  6 13  1  0  0  0  0
  7  6  1  0  0  0  0
  8  7  2  0  0  0  0
  9 10  2  0  0  0  0
  9  8  1  0  0  0  0
 10 11  1  0  0  0  0
 11 14  1  0  0  0  0
 11  6  2  0  0  0  0
 13 12  1  0  0  0  0
 15 14  1  0  0  0  0
 16 17  1  1  0  0  0
 16 20  1  0  0  0  0
 17 18  1  0  0  0  0
 18 19  1  0  0  0  0
 21 20  1  0  0  0  0
 21 22  1  0  0  0  0
 23 22  2  0  0  0  0
 24 23  1  0  0  0  0
 25 26  1  0  0  0  0
 25 24  2  0  0  0  0
 26 21  2  0  0  0  0
M  END
>  <MODEL>
4

>  <REMARK>
 VINA RESULT:    -6.917      3.441      6.072
 INTER + INTRA:         -10.955
 INTER:                 -10.036
 INTRA:                  -0.920
 UNBOUND:                -0.804
  Name = CHEMBL316172
  10 active torsions:
  status: ('A' for Active; 'I' for Inactive)
    1  A    between atoms: C_1  and  O_2
    2  A    between atoms: O_2  and  C_3
    3  A    between atoms: C_5  and  C_6
    4  A    between atoms: C_6  and  N_7
    5  A    between atoms: C_8  and  C_10
    6  A    between atoms: C_10  and  C_11
    7  A    between atoms: C_10  and  C_13
    8  A    between atoms: C_11  and  S_12
    9  A    between atoms: C_13  and  C_14
   10  A    between atoms: C_22  and  O_23
                            x       y       z     vdW  Elec       q    Type
                         _______ _______ _______ _____ _____    ______ ____

>  <TORSDO>
F 9

>  <SCORE>
-6.917

>  <RMSD_LB>
3.441

>  <RMSD_UB>
6.072

$$$$
CHEMBL316172
 OpenBabel10172500553D

 26 27  0  0  1  0  0  0  0  0999 V2000
  138.4680  136.6730  150.4700 N   0  0  0  0  0  0  0  0  0  0  0  0
  137.3000  137.3000  150.0870 C   0  0  0  0  0  0  0  0  0  0  0  0
  137.2710  138.4000  149.5500 O   0  0  0  0  0  0  0  0  0  0  0  0
  138.4220  135.7850  150.8920 H   0  0  0  0  0  0  0  0  0  0  0  0
  139.7580  137.2920  150.2660 C   0  0  0  0  0  2  0  0  0  0  0  0
  140.2200  138.4080  153.8900 C   0  0  0  0  0  0  0  0  0  0  0  0
  139.6380  138.1230  152.6520 C   0  0  0  0  0  3  0  0  0  0  0  0
  140.4090  137.6070  151.5910 C   0  0  0  0  0  0  0  0  0  0  0  0
  141.7770  137.3780  151.7880 C   0  0  0  0  0  3  0  0  0  0  0  0
  142.3660  137.6550  153.0220 C   0  0  0  0  0  3  0  0  0  0  0  0
  141.5900  138.1640  154.0620 C   0  0  0  0  0  0  0  0  0  0  0  0
  138.2190  138.4860  155.1870 C   0  0  0  0  0  1  0  0  0  0  0  0
  139.5570  138.9100  154.9780 O   0  0  0  0  0  0  0  0  0  0  0  0
  142.1710  138.4330  155.2740 O   0  0  0  0  0  0  0  0  0  0  0  0
  143.1020  138.3980  155.3640 H   0  0  0  0  0  0  0  0  0  0  0  0
  136.0500  136.4990  150.4360 C   0  0  1  0  0  3  0  0  0  0  0  0
  135.2350  136.1990  149.1670 C   0  0  0  0  0  2  0  0  0  0  0  0
  133.6130  135.4190  149.4680 S   0  0  0  0  0  0  0  0  0  0  0  0
  133.4920  135.1210  150.7910 H   0  0  0  0  0  0  0  0  0  0  0  0
  136.4350  135.1630  151.1020 C   0  0  0  0  0  2  0  0  0  0  0  0
  135.9100  134.9460  152.5050 C   0  0  0  0  0  0  0  0  0  0  0  0
  136.2210  135.8210  153.5510 C   0  0  0  0  0  3  0  0  0  0  0  0
  135.6580  135.6400  154.8190 C   0  0  0  0  0  3  0  0  0  0  0  0
  134.7790  134.5840  155.0520 C   0  0  0  0  0  3  0  0  0  0  0  0
  134.4720  133.6980  154.0210 C   0  0  0  0  0  3  0  0  0  0  0  0
  135.0360  133.8760  152.7580 C   0  0  0  0  0  3  0  0  0  0  0  0
  1  4  1  0  0  0  0
  2 16  1  0  0  0  0
  2  1  1  0  0  0  0
  3  2  2  0  0  0  0
  5  1  1  0  0  0  0
  5  8  1  0  0  0  0
  6 11  1  0  0  0  0
  6 13  1  0  0  0  0
  7  6  2  0  0  0  0
  8  9  2  0  0  0  0
  8  7  1  0  0  0  0
  9 10  1  0  0  0  0
 10 11  2  0  0  0  0
 11 14  1  0  0  0  0
 13 12  1  0  0  0  0
 14 15  1  0  0  0  0
 16 17  1  6  0  0  0
 16 20  1  0  0  0  0
 17 18  1  0  0  0  0
 18 19  1  0  0  0  0
 20 21  1  0  0  0  0
 21 26  2  0  0  0  0
 21 22  1  0  0  0  0
 22 23  2  0  0  0  0
 23 24  1  0  0  0  0
 25 24  2  0  0  0  0
 26 25  1  0  0  0  0
M  END
>  <MODEL>
5

>  <REMARK>
 VINA RESULT:    -6.822      7.595     10.137
 INTER + INTRA:         -10.816
 INTER:                  -9.716
 INTRA:                  -1.101
 UNBOUND:                -0.804
  Name = CHEMBL316172
  10 active torsions:
  status: ('A' for Active; 'I' for Inactive)
    1  A    between atoms: C_1  and  O_2
    2  A    between atoms: O_2  and  C_3
    3  A    between atoms: C_5  and  C_6
    4  A    between atoms: C_6  and  N_7
    5  A    between atoms: C_8  and  C_10
    6  A    between atoms: C_10  and  C_11
    7  A    between atoms: C_10  and  C_13
    8  A    between atoms: C_11  and  S_12
    9  A    between atoms: C_13  and  C_14
   10  A    between atoms: C_22  and  O_23
                            x       y       z     vdW  Elec       q    Type
                         _______ _______ _______ _____ _____    ______ ____

>  <TORSDO>
F 9

>  <SCORE>
-6.822

>  <RMSD_LB>
7.595

>  <RMSD_UB>
10.137

$$$$
CHEMBL316172
 OpenBabel10172500553D

 26 27  0  0  1  0  0  0  0  0999 V2000
  137.4750  137.0710  151.1600 N   0  0  0  0  0  0  0  0  0  0  0  0
  136.8690  135.9420  150.6480 C   0  0  0  0  0  0  0  0  0  0  0  0
  137.3780  135.2370  149.7870 O   0  0  0  0  0  0  0  0  0  0  0  0
  137.0140  137.5910  151.8570 H   0  0  0  0  0  0  0  0  0  0  0  0
  138.7720  137.5080  150.6960 C   0  0  0  0  0  2  0  0  0  0  0  0
  141.9970  137.6020  152.7420 C   0  0  0  0  0  0  0  0  0  0  0  0
  141.1010  137.4380  151.6830 C   0  0  0  0  0  3  0  0  0  0  0  0
  139.7220  137.6760  151.8570 C   0  0  0  0  0  0  0  0  0  0  0  0
  139.2520  138.0840  153.1120 C   0  0  0  0  0  3  0  0  0  0  0  0
  140.1400  138.2550  154.1740 C   0  0  0  0  0  3  0  0  0  0  0  0
  141.5010  138.0170  153.9860 C   0  0  0  0  0  0  0  0  0  0  0  0
  143.9100  137.1360  151.3940 C   0  0  0  0  0  1  0  0  0  0  0  0
  143.3490  137.3960  152.6720 O   0  0  0  0  0  0  0  0  0  0  0  0
  142.3710  138.1880  155.0310 O   0  0  0  0  0  0  0  0  0  0  0  0
  142.9430  138.9280  155.0460 H   0  0  0  0  0  0  0  0  0  0  0  0
  135.4860  135.6870  151.2380 C   0  0  1  0  0  3  0  0  0  0  0  0
  134.4710  135.4040  150.1170 C   0  0  0  0  0  2  0  0  0  0  0  0
  132.8650  136.2490  150.3120 S   0  0  0  0  0  0  0  0  0  0  0  0
  131.9620  135.3860  150.8520 H   0  0  0  0  0  0  0  0  0  0  0  0
  135.5210  134.4730  152.1870 C   0  0  0  0  0  2  0  0  0  0  0  0
  135.5450  134.7890  153.6670 C   0  0  0  0  0  0  0  0  0  0  0  0
  136.4530  135.7050  154.2090 C   0  0  0  0  0  3  0  0  0  0  0  0
  136.4000  136.0370  155.5680 C   0  0  0  0  0  3  0  0  0  0  0  0
  135.4400  135.4580  156.3950 C   0  0  0  0  0  3  0  0  0  0  0  0
  134.5390  134.5340  155.8690 C   0  0  0  0  0  3  0  0  0  0  0  0
  134.5930  134.2000  154.5150 C   0  0  0  0  0  3  0  0  0  0  0  0
  1  4  1  0  0  0  0
  2  1  1  0  0  0  0
  2 16  1  0  0  0  0
  3  2  2  0  0  0  0
  5  1  1  0  0  0  0
  5  8  1  0  0  0  0
  6 11  1  0  0  0  0
  7  8  1  0  0  0  0
  7  6  2  0  0  0  0
  8  9  2  0  0  0  0
  9 10  1  0  0  0  0
 11 10  2  0  0  0  0
 11 14  1  0  0  0  0
 12 13  1  0  0  0  0
 13  6  1  0  0  0  0
 14 15  1  0  0  0  0
 16 17  1  6  0  0  0
 16 20  1  0  0  0  0
 17 18  1  0  0  0  0
 18 19  1  0  0  0  0
 20 21  1  0  0  0  0
 21 22  2  0  0  0  0
 21 26  1  0  0  0  0
 22 23  1  0  0  0  0
 23 24  2  0  0  0  0
 25 24  1  0  0  0  0
 26 25  2  0  0  0  0
M  END
>  <MODEL>
6

>  <REMARK>
 VINA RESULT:    -6.626      7.690     10.502
 INTER + INTRA:         -10.529
 INTER:                  -9.615
 INTRA:                  -0.914
 UNBOUND:                -0.804
  Name = CHEMBL316172
  10 active torsions:
  status: ('A' for Active; 'I' for Inactive)
    1  A    between atoms: C_1  and  O_2
    2  A    between atoms: O_2  and  C_3
    3  A    between atoms: C_5  and  C_6
    4  A    between atoms: C_6  and  N_7
    5  A    between atoms: C_8  and  C_10
    6  A    between atoms: C_10  and  C_11
    7  A    between atoms: C_10  and  C_13
    8  A    between atoms: C_11  and  S_12
    9  A    between atoms: C_13  and  C_14
   10  A    between atoms: C_22  and  O_23
                            x       y       z     vdW  Elec       q    Type
                         _______ _______ _______ _____ _____    ______ ____

>  <TORSDO>
F 9

>  <SCORE>
-6.626

>  <RMSD_LB>
7.690

>  <RMSD_UB>
10.502

$$$$
CHEMBL316172
 OpenBabel10172500553D

 26 27  0  0  1  0  0  0  0  0999 V2000
  136.4610  136.3060  151.8320 N   0  0  0  0  0  0  0  0  0  0  0  0
  136.1670  135.0250  151.4090 C   0  0  0  0  0  0  0  0  0  0  0  0
  136.8020  134.4410  150.5400 O   0  0  0  0  0  0  0  0  0  0  0  0
  135.9150  136.7160  152.5410 H   0  0  0  0  0  0  0  0  0  0  0  0
  137.5530  137.0580  151.2570 C   0  0  0  0  0  2  0  0  0  0  0  0
  138.8210  138.2390  154.6610 C   0  0  0  0  0  0  0  0  0  0  0  0
  137.9800  137.7830  153.6430 C   0  0  0  0  0  3  0  0  0  0  0  0
  138.4730  137.5670  152.3390 C   0  0  0  0  0  0  0  0  0  0  0  0
  139.8250  137.8150  152.0700 C   0  0  0  0  0  3  0  0  0  0  0  0
  140.6730  138.2660  153.0820 C   0  0  0  0  0  3  0  0  0  0  0  0
  140.1710  138.4750  154.3660 C   0  0  0  0  0  0  0  0  0  0  0  0
  137.2640  137.8330  156.4230 C   0  0  0  0  0  1  0  0  0  0  0  0
  138.4370  138.4790  155.9540 O   0  0  0  0  0  0  0  0  0  0  0  0
  141.0070  138.9160  155.3580 O   0  0  0  0  0  0  0  0  0  0  0  0
  141.9270  138.7530  155.3020 H   0  0  0  0  0  0  0  0  0  0  0  0
  134.9500  134.4290  152.1080 C   0  0  1  0  0  3  0  0  0  0  0  0
  134.3200  135.4630  153.0580 C   0  0  0  0  0  2  0  0  0  0  0  0
  134.5620  135.1130  154.8330 S   0  0  0  0  0  0  0  0  0  0  0  0
  134.9930  136.2390  155.4630 H   0  0  0  0  0  0  0  0  0  0  0  0
  133.8900  134.0030  151.0730 C   0  0  0  0  0  2  0  0  0  0  0  0
  133.5790  135.0110  149.9890 C   0  0  0  0  0  0  0  0  0  0  0  0
  133.9410  134.7930  148.6550 C   0  0  0  0  0  3  0  0  0  0  0  0
  133.5710  135.7060  147.6610 C   0  0  0  0  0  3  0  0  0  0  0  0
  132.8350  136.8430  147.9900 C   0  0  0  0  0  3  0  0  0  0  0  0
  132.4800  137.0770  149.3180 C   0  0  0  0  0  3  0  0  0  0  0  0
  132.8520  136.1690  150.3090 C   0  0  0  0  0  3  0  0  0  0  0  0
  1  4  1  0  0  0  0
  2  1  1  0  0  0  0
  2 16  1  0  0  0  0
  3  2  2  0  0  0  0
  5  1  1  0  0  0  0
  5  8  1  0  0  0  0
  6 13  1  0  0  0  0
  7  6  2  0  0  0  0
  8  7  1  0  0  0  0
  9  8  2  0  0  0  0
  9 10  1  0  0  0  0
 10 11  2  0  0  0  0
 11  6  1  0  0  0  0
 11 14  1  0  0  0  0
 13 12  1  0  0  0  0
 15 14  1  0  0  0  0
 16 20  1  6  0  0  0
 16 17  1  0  0  0  0
 17 18  1  0  0  0  0
 18 19  1  0  0  0  0
 21 26  1  0  0  0  0
 21 20  1  0  0  0  0
 22 21  2  0  0  0  0
 23 24  2  0  0  0  0
 23 22  1  0  0  0  0
 24 25  1  0  0  0  0
 25 26  2  0  0  0  0
M  END
>  <MODEL>
7

>  <REMARK>
 VINA RESULT:    -6.456      9.304     11.855
 INTER + INTRA:         -10.279
 INTER:                  -9.827
 INTRA:                  -0.452
 UNBOUND:                -0.804
  Name = CHEMBL316172
  10 active torsions:
  status: ('A' for Active; 'I' for Inactive)
    1  A    between atoms: C_1  and  O_2
    2  A    between atoms: O_2  and  C_3
    3  A    between atoms: C_5  and  C_6
    4  A    between atoms: C_6  and  N_7
    5  A    between atoms: C_8  and  C_10
    6  A    between atoms: C_10  and  C_11
    7  A    between atoms: C_10  and  C_13
    8  A    between atoms: C_11  and  S_12
    9  A    between atoms: C_13  and  C_14
   10  A    between atoms: C_22  and  O_23
                            x       y       z     vdW  Elec       q    Type
                         _______ _______ _______ _____ _____    ______ ____

>  <TORSDO>
F 9

>  <SCORE>
-6.456

>  <RMSD_LB>
9.304

>  <RMSD_UB>
11.855

$$$$
CHEMBL316172
 OpenBabel10172500553D

 26 27  0  0  1  0  0  0  0  0999 V2000
  144.1810  138.3710  150.5050 N   0  0  0  0  0  0  0  0  0  0  0  0
  144.5360  139.6810  150.2540 C   0  0  0  0  0  0  0  0  0  0  0  0
  143.7200  140.5760  150.0700 O   0  0  0  0  0  0  0  0  0  0  0  0
  144.8880  137.7010  150.6510 H   0  0  0  0  0  0  0  0  0  0  0  0
  142.7970  137.9600  150.5570 C   0  0  0  0  0  2  0  0  0  0  0  0
  140.4160  138.1500  153.5370 C   0  0  0  0  0  0  0  0  0  0  0  0
  140.9070  138.1330  152.2300 C   0  0  0  0  0  3  0  0  0  0  0  0
  142.2870  137.9920  151.9770 C   0  0  0  0  0  0  0  0  0  0  0  0
  143.1710  137.8660  153.0560 C   0  0  0  0  0  3  0  0  0  0  0  0
  142.6880  137.8770  154.3650 C   0  0  0  0  0  3  0  0  0  0  0  0
  141.3210  138.0170  154.5990 C   0  0  0  0  0  0  0  0  0  0  0  0
  138.1290  137.6900  153.0310 C   0  0  0  0  0  1  0  0  0  0  0  0
  139.0970  138.2830  153.8830 O   0  0  0  0  0  0  0  0  0  0  0  0
  140.8500  138.0260  155.8860 O   0  0  0  0  0  0  0  0  0  0  0  0
  140.6640  138.8390  156.3110 H   0  0  0  0  0  0  0  0  0  0  0  0
  146.0450  139.8910  150.1930 C   0  0  1  0  0  3  0  0  0  0  0  0
  146.5820  139.5110  148.8030 C   0  0  0  0  0  2  0  0  0  0  0  0
  146.2360  140.7330  147.4920 S   0  0  0  0  0  0  0  0  0  0  0  0
  145.5000  141.7550  148.0080 H   0  0  0  0  0  0  0  0  0  0  0  0
  146.3950  141.3670  150.4690 C   0  0  0  0  0  2  0  0  0  0  0  0
  147.1460  141.6410  151.7540 C   0  0  0  0  0  0  0  0  0  0  0  0
  146.4870  141.7390  152.9850 C   0  0  0  0  0  3  0  0  0  0  0  0
  147.2150  141.9140  154.1670 C   0  0  0  0  0  3  0  0  0  0  0  0
  148.6070  141.9910  154.1300 C   0  0  0  0  0  3  0  0  0  0  0  0
  149.2720  141.9080  152.9080 C   0  0  0  0  0  3  0  0  0  0  0  0
  148.5470  141.7370  151.7290 C   0  0  0  0  0  3  0  0  0  0  0  0
  1  5  1  0  0  0  0
  1  4  1  0  0  0  0
  2  1  1  0  0  0  0
  3  2  2  0  0  0  0
  5  8  1  0  0  0  0
  6 13  1  0  0  0  0
  6 11  1  0  0  0  0
  7  6  2  0  0  0  0
  8  7  1  0  0  0  0
  8  9  2  0  0  0  0
  9 10  1  0  0  0  0
 10 11  2  0  0  0  0
 11 14  1  0  0  0  0
 12 13  1  0  0  0  0
 14 15  1  0  0  0  0
 16 17  1  6  0  0  0
 16  2  1  0  0  0  0
 16 20  1  0  0  0  0
 18 19  1  0  0  0  0
 18 17  1  0  0  0  0
 20 21  1  0  0  0  0
 21 22  1  0  0  0  0
 22 23  2  0  0  0  0
 24 23  1  0  0  0  0
 25 24  2  0  0  0  0
 26 21  2  0  0  0  0
 26 25  1  0  0  0  0
M  END
>  <MODEL>
8

>  <REMARK>
 VINA RESULT:    -6.409      2.660      3.590
 INTER + INTRA:         -10.209
 INTER:                  -9.406
 INTRA:                  -0.804
 UNBOUND:                -0.804
  Name = CHEMBL316172
  10 active torsions:
  status: ('A' for Active; 'I' for Inactive)
    1  A    between atoms: C_1  and  O_2
    2  A    between atoms: O_2  and  C_3
    3  A    between atoms: C_5  and  C_6
    4  A    between atoms: C_6  and  N_7
    5  A    between atoms: C_8  and  C_10
    6  A    between atoms: C_10  and  C_11
    7  A    between atoms: C_10  and  C_13
    8  A    between atoms: C_11  and  S_12
    9  A    between atoms: C_13  and  C_14
   10  A    between atoms: C_22  and  O_23
                            x       y       z     vdW  Elec       q    Type
                         _______ _______ _______ _____ _____    ______ ____

>  <TORSDO>
F 9

>  <SCORE>
-6.409

>  <RMSD_LB>
2.660

>  <RMSD_UB>
3.590

$$$$
CHEMBL316172
 OpenBabel10172500553D

 26 27  0  0  1  0  0  0  0  0999 V2000
  147.0400  137.8570  149.8930 N   0  0  0  0  0  0  0  0  0  0  0  0
  146.1400  138.3410  148.9650 C   0  0  0  0  0  0  0  0  0  0  0  0
  144.9740  137.9710  148.9020 O   0  0  0  0  0  0  0  0  0  0  0  0
  147.9620  138.2010  149.8940 H   0  0  0  0  0  0  0  0  0  0  0  0
  146.6590  136.8540  150.8620 C   0  0  0  0  0  2  0  0  0  0  0  0
  146.8360  138.7340  154.1820 C   0  0  0  0  0  0  0  0  0  0  0  0
  147.2060  138.1150  152.9860 C   0  0  0  0  0  3  0  0  0  0  0  0
  146.2410  137.5030  152.1590 C   0  0  0  0  0  0  0  0  0  0  0  0
  144.8960  137.5210  152.5490 C   0  0  0  0  0  3  0  0  0  0  0  0
  144.5170  138.1400  153.7400 C   0  0  0  0  0  3  0  0  0  0  0  0
  145.4820  138.7420  154.5470 C   0  0  0  0  0  0  0  0  0  0  0  0
  148.5410  140.3670  154.5300 C   0  0  0  0  0  1  0  0  0  0  0  0
  147.6960  139.3520  155.0510 O   0  0  0  0  0  0  0  0  0  0  0  0
  145.1060  139.3510  155.7150 O   0  0  0  0  0  0  0  0  0  0  0  0
  144.7580  140.2200  155.6990 H   0  0  0  0  0  0  0  0  0  0  0  0
  146.7570  139.3530  148.0050 C   0  0  1  0  0  3  0  0  0  0  0  0
  146.4210  138.9840  146.5510 C   0  0  0  0  0  2  0  0  0  0  0  0
  147.0740  137.3700  146.0040 S   0  0  0  0  0  0  0  0  0  0  0  0
  147.8290  137.5410  144.8850 H   0  0  0  0  0  0  0  0  0  0  0  0
  146.2140  140.7670  148.2930 C   0  0  0  0  0  2  0  0  0  0  0  0
  146.2680  141.2170  149.7370 C   0  0  0  0  0  0  0  0  0  0  0  0
  147.4300  141.7610  150.2950 C   0  0  0  0  0  3  0  0  0  0  0  0
  147.4290  142.2420  151.6090 C   0  0  0  0  0  3  0  0  0  0  0  0
  146.2660  142.1850  152.3760 C   0  0  0  0  0  3  0  0  0  0  0  0
  145.1060  141.6330  151.8340 C   0  0  0  0  0  3  0  0  0  0  0  0
  145.1090  141.1510  150.5260 C   0  0  0  0  0  3  0  0  0  0  0  0
  1  4  1  0  0  0  0
  1  5  1  0  0  0  0
  2  1  1  0  0  0  0
  3  2  2  0  0  0  0
  5  8  1  0  0  0  0
  6 11  1  0  0  0  0
  6 13  1  0  0  0  0
  7  6  2  0  0  0  0
  8  9  2  0  0  0  0
  8  7  1  0  0  0  0
  9 10  1  0  0  0  0
 10 11  2  0  0  0  0
 11 14  1  0  0  0  0
 12 13  1  0  0  0  0
 15 14  1  0  0  0  0
 16 17  1  6  0  0  0
 16 20  1  0  0  0  0
 16  2  1  0  0  0  0
 18 17  1  0  0  0  0
 19 18  1  0  0  0  0
 20 21  1  0  0  0  0
 21 22  2  0  0  0  0
 21 26  1  0  0  0  0
 22 23  1  0  0  0  0
 23 24  2  0  0  0  0
 25 24  1  0  0  0  0
 26 25  2  0  0  0  0
M  END
>  <MODEL>
9

>  <REMARK>
 VINA RESULT:    -6.404      1.346      2.431
 INTER + INTRA:         -10.203
 INTER:                  -8.579
 INTRA:                  -1.624
 UNBOUND:                -0.804
  Name = CHEMBL316172
  10 active torsions:
  status: ('A' for Active; 'I' for Inactive)
    1  A    between atoms: C_1  and  O_2
    2  A    between atoms: O_2  and  C_3
    3  A    between atoms: C_5  and  C_6
    4  A    between atoms: C_6  and  N_7
    5  A    between atoms: C_8  and  C_10
    6  A    between atoms: C_10  and  C_11
    7  A    between atoms: C_10  and  C_13
    8  A    between atoms: C_11  and  S_12
    9  A    between atoms: C_13  and  C_14
   10  A    between atoms: C_22  and  O_23
                            x       y       z     vdW  Elec       q    Type
                         _______ _______ _______ _____ _____    ______ ____

>  <TORSDO>
F 9

>  <SCORE>
-6.404

>  <RMSD_LB>
1.346

>  <RMSD_UB>
2.431

$$$$
