CHEMBL25948
 OpenBabel10172500163D

 21 21  0  0  0  0  0  0  0  0999 V2000
  135.5420  134.0920  152.1610 C   0  0  0  0  0  2  0  0  0  0  0  0
  134.6370  134.0230  150.9580 C   0  0  0  0  0  0  0  0  0  0  0  0
  133.2800  133.7270  151.1090 C   0  0  0  0  0  3  0  0  0  0  0  0
  132.4530  133.6280  149.9910 C   0  0  0  0  0  3  0  0  0  0  0  0
  132.9750  133.8140  148.7080 C   0  0  0  0  0  0  0  0  0  0  0  0
  134.3300  134.1120  148.5300 C   0  0  0  0  0  0  0  0  0  0  0  0
  135.1480  134.2210  149.6650 C   0  0  0  0  0  3  0  0  0  0  0  0
  132.1220  133.6930  147.6450 O   0  0  0  0  0  0  0  0  0  0  0  0
  131.3720  133.1340  147.7080 H   0  0  0  0  0  0  0  0  0  0  0  0
  135.0080  134.3150  147.3560 O   0  0  0  0  0  0  0  0  0  0  0  0
  134.9940  135.6260  146.8090 C   0  0  0  0  0  1  0  0  0  0  0  0
  134.7490  134.0440  153.4620 C   0  0  0  0  0  2  0  0  0  0  0  0
  134.7610  135.3930  154.1500 C   0  0  0  0  0  0  0  0  0  0  0  0
  134.1340  136.3560  153.7280 O   0  0  0  0  0  0  0  0  0  0  0  0
  136.8020  135.9550  155.3950 C   0  0  0  0  0  3  0  0  0  0  0  0
  135.5490  135.4790  155.4130 C   0  0  0  0  0  3  0  0  0  0  0  0
  137.6540  136.0710  156.6230 C   0  0  0  0  0  2  0  0  0  0  0  0
  137.7530  137.5190  157.0980 C   0  0  0  0  0  2  0  0  0  0  0  0
  137.1720  137.6740  158.5030 C   0  0  0  0  0  2  0  0  0  0  0  0
  135.2700  136.5150  159.6620 C   0  0  0  0  0  1  0  0  0  0  0  0
  136.6420  136.3450  159.0310 C   0  0  0  0  0  2  0  0  0  0  0  0
  1 12  1  0  0  0  0
  2  3  1  0  0  0  0
  2  1  1  0  0  0  0
  4  3  2  0  0  0  0
  5  4  1  0  0  0  0
  6  5  2  0  0  0  0
  6  7  1  0  0  0  0
  7  2  2  0  0  0  0
  8  9  1  0  0  0  0
  8  5  1  0  0  0  0
 10  6  1  0  0  0  0
 11 10  1  0  0  0  0
 12 13  1  0  0  0  0
 13 16  1  0  0  0  0
 14 13  2  0  0  0  0
 15 16  2  0  0  0  0
 15 17  1  0  0  0  0
 17 18  1  0  0  0  0
 18 19  1  0  0  0  0
 19 21  1  0  0  0  0
 21 20  1  0  0  0  0
M  END
>  <MODEL>
1

>  <REMARK>
 VINA RESULT:    -5.754      0.000      0.000
 INTER + INTRA:         -10.717
 INTER:                  -9.850
 INTRA:                  -0.867
 UNBOUND:                -1.767
  Name = CHEMBL25948
  12 active torsions:
  status: ('A' for Active; 'I' for Inactive)
    1  A    between atoms: C_1  and  C_2
    2  A    between atoms: C_2  and  C_3
    3  A    between atoms: C_3  and  C_4
    4  A    between atoms: C_4  and  C_5
    5  A    between atoms: C_5  and  C_6
    6  A    between atoms: C_7  and  C_8
    7  A    between atoms: C_8  and  C_10
    8  A    between atoms: C_10  and  C_11
    9  A    between atoms: C_11  and  C_12
   10  A    between atoms: C_15  and  O_16
   11  A    between atoms: C_17  and  O_18
   12  A    between atoms: O_18  and  C_19
                            x       y       z     vdW  Elec       q    Type
                         _______ _______ _______ _____ _____    ______ ____

>  <TORSDO>
F 10

>  <SCORE>
-5.754

>  <RMSD_LB>
0.000

>  <RMSD_UB>
0.000

$$$$
CHEMBL25948
 OpenBabel10172500163D

 21 21  0  0  0  0  0  0  0  0999 V2000
  137.0990  136.8260  151.4320 C   0  0  0  0  0  2  0  0  0  0  0  0
  136.3090  135.8570  152.2740 C   0  0  0  0  0  0  0  0  0  0  0  0
  135.6290  134.7910  151.6780 C   0  0  0  0  0  3  0  0  0  0  0  0
  134.8700  133.9190  152.4550 C   0  0  0  0  0  3  0  0  0  0  0  0
  134.7740  134.1060  153.8370 C   0  0  0  0  0  0  0  0  0  0  0  0
  135.4460  135.1630  154.4580 C   0  0  0  0  0  0  0  0  0  0  0  0
  136.2170  136.0280  153.6640 C   0  0  0  0  0  3  0  0  0  0  0  0
  134.0050  133.2270  154.5500 O   0  0  0  0  0  0  0  0  0  0  0  0
  133.2060  132.9000  154.1850 H   0  0  0  0  0  0  0  0  0  0  0  0
  135.4560  135.5000  155.7870 O   0  0  0  0  0  0  0  0  0  0  0  0
  136.6880  135.9370  156.3430 C   0  0  0  0  0  1  0  0  0  0  0  0
  137.1770  136.3710  149.9780 C   0  0  0  0  0  2  0  0  0  0  0  0
  136.4730  137.3570  149.0680 C   0  0  0  0  0  0  0  0  0  0  0  0
  136.8740  138.5010  148.8950 O   0  0  0  0  0  0  0  0  0  0  0  0
  134.1170  136.6670  148.9960 C   0  0  0  0  0  3  0  0  0  0  0  0
  135.2750  136.8410  148.3450 C   0  0  0  0  0  3  0  0  0  0  0  0
  132.8730  136.1530  148.3360 C   0  0  0  0  0  2  0  0  0  0  0  0
  133.0560  134.7200  147.8430 C   0  0  0  0  0  2  0  0  0  0  0  0
  132.8300  133.7190  148.9770 C   0  0  0  0  0  2  0  0  0  0  0  0
  134.8030  132.6950  147.8090 C   0  0  0  0  0  1  0  0  0  0  0  0
  134.0000  132.7480  149.0970 C   0  0  0  0  0  2  0  0  0  0  0  0
  1  2  1  0  0  0  0
  2  7  1  0  0  0  0
  3  2  2  0  0  0  0
  3  4  1  0  0  0  0
  4  5  2  0  0  0  0
  5  6  1  0  0  0  0
  5  8  1  0  0  0  0
  6 10  1  0  0  0  0
  7  6  2  0  0  0  0
  9  8  1  0  0  0  0
 10 11  1  0  0  0  0
 12  1  1  0  0  0  0
 13 12  1  0  0  0  0
 14 13  2  0  0  0  0
 16 15  2  0  0  0  0
 16 13  1  0  0  0  0
 17 15  1  0  0  0  0
 18 17  1  0  0  0  0
 18 19  1  0  0  0  0
 19 21  1  0  0  0  0
 20 21  1  0  0  0  0
M  END
>  <MODEL>
2

>  <REMARK>
 VINA RESULT:    -5.629      2.572      7.554
 INTER + INTRA:         -10.522
 INTER:                  -8.915
 INTRA:                  -1.606
 UNBOUND:                -1.767
  Name = CHEMBL25948
  12 active torsions:
  status: ('A' for Active; 'I' for Inactive)
    1  A    between atoms: C_1  and  C_2
    2  A    between atoms: C_2  and  C_3
    3  A    between atoms: C_3  and  C_4
    4  A    between atoms: C_4  and  C_5
    5  A    between atoms: C_5  and  C_6
    6  A    between atoms: C_7  and  C_8
    7  A    between atoms: C_8  and  C_10
    8  A    between atoms: C_10  and  C_11
    9  A    between atoms: C_11  and  C_12
   10  A    between atoms: C_15  and  O_16
   11  A    between atoms: C_17  and  O_18
   12  A    between atoms: O_18  and  C_19
                            x       y       z     vdW  Elec       q    Type
                         _______ _______ _______ _____ _____    ______ ____

>  <TORSDO>
F 10

>  <SCORE>
-5.629

>  <RMSD_LB>
2.572

>  <RMSD_UB>
7.554

$$$$
CHEMBL25948
 OpenBabel10172500163D

 21 21  0  0  0  0  0  0  0  0999 V2000
  146.1610  137.8840  151.8620 C   0  0  0  0  0  2  0  0  0  0  0  0
  145.7840  138.6200  150.6020 C   0  0  0  0  0  0  0  0  0  0  0  0
  146.7340  138.8450  149.6030 C   0  0  0  0  0  3  0  0  0  0  0  0
  146.3920  139.5590  148.4560 C   0  0  0  0  0  3  0  0  0  0  0  0
  145.0980  140.0630  148.2970 C   0  0  0  0  0  0  0  0  0  0  0  0
  144.1290  139.8500  149.2820 C   0  0  0  0  0  0  0  0  0  0  0  0
  144.4840  139.1200  150.4270 C   0  0  0  0  0  3  0  0  0  0  0  0
  144.8200  140.7660  147.1570 O   0  0  0  0  0  0  0  0  0  0  0  0
  144.6160  141.6800  147.2080 H   0  0  0  0  0  0  0  0  0  0  0  0
  142.8260  140.2760  149.2970 O   0  0  0  0  0  0  0  0  0  0  0  0
  141.8280  139.3510  148.8890 C   0  0  0  0  0  1  0  0  0  0  0  0
  147.6090  137.4090  151.8230 C   0  0  0  0  0  2  0  0  0  0  0  0
  148.4140  138.0440  152.9380 C   0  0  0  0  0  0  0  0  0  0  0  0
  149.0130  137.3860  153.7790 O   0  0  0  0  0  0  0  0  0  0  0  0
  147.8070  140.2420  153.8490 C   0  0  0  0  0  3  0  0  0  0  0  0
  148.4800  139.5330  152.9320 C   0  0  0  0  0  3  0  0  0  0  0  0
  147.8260  141.7400  153.9050 C   0  0  0  0  0  2  0  0  0  0  0  0
  146.4390  142.3240  153.6440 C   0  0  0  0  0  2  0  0  0  0  0  0
  145.7910  141.6690  152.4250 C   0  0  0  0  0  2  0  0  0  0  0  0
  146.8940  142.5760  150.3590 C   0  0  0  0  0  1  0  0  0  0  0  0
  145.6760  142.6530  151.2650 C   0  0  0  0  0  2  0  0  0  0  0  0
  2  1  1  0  0  0  0
  3  2  2  0  0  0  0
  4  3  1  0  0  0  0
  5  4  2  0  0  0  0
  5  6  1  0  0  0  0
  6 10  1  0  0  0  0
  6  7  2  0  0  0  0
  7  2  1  0  0  0  0
  8  9  1  0  0  0  0
  8  5  1  0  0  0  0
 11 10  1  0  0  0  0
 12  1  1  0  0  0  0
 12 13  1  0  0  0  0
 13 14  2  0  0  0  0
 15 17  1  0  0  0  0
 16 13  1  0  0  0  0
 16 15  2  0  0  0  0
 18 17  1  0  0  0  0
 19 18  1  0  0  0  0
 20 21  1  0  0  0  0
 21 19  1  0  0  0  0
M  END
>  <MODEL>
3

>  <REMARK>
 VINA RESULT:    -5.528     11.120     12.782
 INTER + INTRA:         -10.364
 INTER:                  -8.527
 INTRA:                  -1.838
 UNBOUND:                -1.767
  Name = CHEMBL25948
  12 active torsions:
  status: ('A' for Active; 'I' for Inactive)
    1  A    between atoms: C_1  and  C_2
    2  A    between atoms: C_2  and  C_3
    3  A    between atoms: C_3  and  C_4
    4  A    between atoms: C_4  and  C_5
    5  A    between atoms: C_5  and  C_6
    6  A    between atoms: C_7  and  C_8
    7  A    between atoms: C_8  and  C_10
    8  A    between atoms: C_10  and  C_11
    9  A    between atoms: C_11  and  C_12
   10  A    between atoms: C_15  and  O_16
   11  A    between atoms: C_17  and  O_18
   12  A    between atoms: O_18  and  C_19
                            x       y       z     vdW  Elec       q    Type
                         _______ _______ _______ _____ _____    ______ ____

>  <TORSDO>
F 10

>  <SCORE>
-5.528

>  <RMSD_LB>
11.120

>  <RMSD_UB>
12.782

$$$$
CHEMBL25948
 OpenBabel10172500163D

 21 21  0  0  0  0  0  0  0  0999 V2000
  143.0710  137.8560  151.7930 C   0  0  0  0  0  2  0  0  0  0  0  0
  144.0660  138.2060  152.8700 C   0  0  0  0  0  0  0  0  0  0  0  0
  143.6790  138.9780  153.9680 C   0  0  0  0  0  3  0  0  0  0  0  0
  144.6100  139.3300  154.9430 C   0  0  0  0  0  3  0  0  0  0  0  0
  145.9420  138.9220  154.8280 C   0  0  0  0  0  0  0  0  0  0  0  0
  146.3540  138.1470  153.7390 C   0  0  0  0  0  0  0  0  0  0  0  0
  145.4030  137.7900  152.7710 C   0  0  0  0  0  3  0  0  0  0  0  0
  146.8160  139.3060  155.8070 O   0  0  0  0  0  0  0  0  0  0  0  0
  146.5190  139.8420  156.5170 H   0  0  0  0  0  0  0  0  0  0  0  0
  147.6100  137.6710  153.4630 O   0  0  0  0  0  0  0  0  0  0  0  0
  147.8850  137.2840  152.1240 C   0  0  0  0  0  1  0  0  0  0  0  0
  142.0660  138.9810  151.5710 C   0  0  0  0  0  2  0  0  0  0  0  0
  142.3690  139.7270  150.2880 C   0  0  0  0  0  0  0  0  0  0  0  0
  141.4980  140.2580  149.6100 O   0  0  0  0  0  0  0  0  0  0  0  0
  144.5410  140.8730  150.3150 C   0  0  0  0  0  3  0  0  0  0  0  0
  143.8080  139.8260  149.9110 C   0  0  0  0  0  3  0  0  0  0  0  0
  145.9920  141.0400  149.9750 C   0  0  0  0  0  2  0  0  0  0  0  0
  146.6760  142.0220  150.9240 C   0  0  0  0  0  2  0  0  0  0  0  0
  145.7750  142.3480  152.1150 C   0  0  0  0  0  2  0  0  0  0  0  0
  147.9340  141.6730  153.2050 C   0  0  0  0  0  1  0  0  0  0  0  0
  146.5290  142.2040  153.4340 C   0  0  0  0  0  2  0  0  0  0  0  0
  1  2  1  0  0  0  0
  2  3  1  0  0  0  0
  3  4  2  0  0  0  0
  5  4  1  0  0  0  0
  5  8  1  0  0  0  0
  6  5  2  0  0  0  0
  7  2  2  0  0  0  0
  7  6  1  0  0  0  0
  8  9  1  0  0  0  0
 10  6  1  0  0  0  0
 11 10  1  0  0  0  0
 12  1  1  0  0  0  0
 13 12  1  0  0  0  0
 14 13  2  0  0  0  0
 16 13  1  0  0  0  0
 16 15  2  0  0  0  0
 17 15  1  0  0  0  0
 17 18  1  0  0  0  0
 18 19  1  0  0  0  0
 19 21  1  0  0  0  0
 20 21  1  0  0  0  0
M  END
>  <MODEL>
4

>  <REMARK>
 VINA RESULT:    -5.526      9.922     12.425
 INTER + INTRA:         -10.362
 INTER:                  -8.637
 INTRA:                  -1.725
 UNBOUND:                -1.767
  Name = CHEMBL25948
  12 active torsions:
  status: ('A' for Active; 'I' for Inactive)
    1  A    between atoms: C_1  and  C_2
    2  A    between atoms: C_2  and  C_3
    3  A    between atoms: C_3  and  C_4
    4  A    between atoms: C_4  and  C_5
    5  A    between atoms: C_5  and  C_6
    6  A    between atoms: C_7  and  C_8
    7  A    between atoms: C_8  and  C_10
    8  A    between atoms: C_10  and  C_11
    9  A    between atoms: C_11  and  C_12
   10  A    between atoms: C_15  and  O_16
   11  A    between atoms: C_17  and  O_18
   12  A    between atoms: O_18  and  C_19
                            x       y       z     vdW  Elec       q    Type
                         _______ _______ _______ _____ _____    ______ ____

>  <TORSDO>
F 10

>  <SCORE>
-5.526

>  <RMSD_LB>
9.922

>  <RMSD_UB>
12.425

$$$$
CHEMBL25948
 OpenBabel10172500163D

 21 21  0  0  0  0  0  0  0  0999 V2000
  134.7080  133.2770  146.5680 C   0  0  0  0  0  2  0  0  0  0  0  0
  134.2510  133.5910  147.9700 C   0  0  0  0  0  0  0  0  0  0  0  0
  134.3010  132.6120  148.9660 C   0  0  0  0  0  3  0  0  0  0  0  0
  133.8440  132.8950  150.2520 C   0  0  0  0  0  3  0  0  0  0  0  0
  133.3240  134.1560  150.5560 C   0  0  0  0  0  0  0  0  0  0  0  0
  133.2640  135.1530  149.5760 C   0  0  0  0  0  0  0  0  0  0  0  0
  133.7390  134.8580  148.2880 C   0  0  0  0  0  3  0  0  0  0  0  0
  132.8780  134.3750  151.8300 O   0  0  0  0  0  0  0  0  0  0  0  0
  133.2280  135.0850  152.3330 H   0  0  0  0  0  0  0  0  0  0  0  0
  132.7810  136.4310  149.6940 O   0  0  0  0  0  0  0  0  0  0  0  0
  132.4520  137.1200  148.4960 C   0  0  0  0  0  1  0  0  0  0  0  0
  136.1600  132.8150  146.5410 C   0  0  0  0  0  2  0  0  0  0  0  0
  136.3920  131.8340  145.4100 C   0  0  0  0  0  0  0  0  0  0  0  0
  136.2020  130.6300  145.5290 O   0  0  0  0  0  0  0  0  0  0  0  0
  137.3260  131.6370  143.1470 C   0  0  0  0  0  3  0  0  0  0  0  0
  136.8250  132.4230  144.1110 C   0  0  0  0  0  3  0  0  0  0  0  0
  137.7820  132.1570  141.8170 C   0  0  0  0  0  2  0  0  0  0  0  0
  137.1840  133.5310  141.5230 C   0  0  0  0  0  2  0  0  0  0  0  0
  137.9740  134.2470  140.4270 C   0  0  0  0  0  2  0  0  0  0  0  0
  140.1320  133.6450  139.2940 C   0  0  0  0  0  1  0  0  0  0  0  0
  138.6820  133.2490  139.5160 C   0  0  0  0  0  2  0  0  0  0  0  0
  1  2  1  0  0  0  0
  2  7  2  0  0  0  0
  2  3  1  0  0  0  0
  3  4  2  0  0  0  0
  4  5  1  0  0  0  0
  5  8  1  0  0  0  0
  6 10  1  0  0  0  0
  6  5  2  0  0  0  0
  7  6  1  0  0  0  0
  8  9  1  0  0  0  0
 11 10  1  0  0  0  0
 12  1  1  0  0  0  0
 13 14  2  0  0  0  0
 13 12  1  0  0  0  0
 15 16  2  0  0  0  0
 16 13  1  0  0  0  0
 17 15  1  0  0  0  0
 18 17  1  0  0  0  0
 19 18  1  0  0  0  0
 20 21  1  0  0  0  0
 21 19  1  0  0  0  0
M  END
>  <MODEL>
5

>  <REMARK>
 VINA RESULT:    -5.337      5.279     10.808
 INTER + INTRA:         -10.068
 INTER:                  -9.481
 INTRA:                  -0.587
 UNBOUND:                -1.767
  Name = CHEMBL25948
  12 active torsions:
  status: ('A' for Active; 'I' for Inactive)
    1  A    between atoms: C_1  and  C_2
    2  A    between atoms: C_2  and  C_3
    3  A    between atoms: C_3  and  C_4
    4  A    between atoms: C_4  and  C_5
    5  A    between atoms: C_5  and  C_6
    6  A    between atoms: C_7  and  C_8
    7  A    between atoms: C_8  and  C_10
    8  A    between atoms: C_10  and  C_11
    9  A    between atoms: C_11  and  C_12
   10  A    between atoms: C_15  and  O_16
   11  A    between atoms: C_17  and  O_18
   12  A    between atoms: O_18  and  C_19
                            x       y       z     vdW  Elec       q    Type
                         _______ _______ _______ _____ _____    ______ ____

>  <TORSDO>
F 10

>  <SCORE>
-5.337

>  <RMSD_LB>
5.279

>  <RMSD_UB>
10.808

$$$$
CHEMBL25948
 OpenBabel10172500163D

 21 21  0  0  0  0  0  0  0  0999 V2000
  135.6630  135.4090  151.5970 C   0  0  0  0  0  2  0  0  0  0  0  0
  134.8580  134.8880  150.4340 C   0  0  0  0  0  0  0  0  0  0  0  0
  134.4540  133.5510  150.3950 C   0  0  0  0  0  3  0  0  0  0  0  0
  133.7410  133.0640  149.3020 C   0  0  0  0  0  3  0  0  0  0  0  0
  133.4290  133.9050  148.2300 C   0  0  0  0  0  0  0  0  0  0  0  0
  133.8210  135.2480  148.2460 C   0  0  0  0  0  0  0  0  0  0  0  0
  134.5280  135.7280  149.3590 C   0  0  0  0  0  3  0  0  0  0  0  0
  132.7380  133.3720  147.1770 O   0  0  0  0  0  0  0  0  0  0  0  0
  132.0520  132.7520  147.3320 H   0  0  0  0  0  0  0  0  0  0  0  0
  133.6120  136.2050  147.2860 O   0  0  0  0  0  0  0  0  0  0  0  0
  132.4320  136.9900  147.3890 C   0  0  0  0  0  1  0  0  0  0  0  0
  134.7650  135.9500  152.7040 C   0  0  0  0  0  2  0  0  0  0  0  0
  134.7300  134.9980  153.8820 C   0  0  0  0  0  0  0  0  0  0  0  0
  133.9050  134.1000  153.9820 O   0  0  0  0  0  0  0  0  0  0  0  0
  136.1170  136.4140  155.3330 C   0  0  0  0  0  3  0  0  0  0  0  0
  135.7970  135.1840  154.9070 C   0  0  0  0  0  3  0  0  0  0  0  0
  137.1770  136.6770  156.3590 C   0  0  0  0  0  2  0  0  0  0  0  0
  138.4170  137.3070  155.7290 C   0  0  0  0  0  2  0  0  0  0  0  0
  138.0280  138.3310  154.6630 C   0  0  0  0  0  2  0  0  0  0  0  0
  138.4640  137.7100  152.2690 C   0  0  0  0  0  1  0  0  0  0  0  0
  139.0390  138.3510  153.5210 C   0  0  0  0  0  2  0  0  0  0  0  0
  1 12  1  0  0  0  0
  2  1  1  0  0  0  0
  3  2  1  0  0  0  0
  4  3  2  0  0  0  0
  5  6  2  0  0  0  0
  5  4  1  0  0  0  0
  6  7  1  0  0  0  0
  7  2  2  0  0  0  0
  8  9  1  0  0  0  0
  8  5  1  0  0  0  0
 10 11  1  0  0  0  0
 10  6  1  0  0  0  0
 12 13  1  0  0  0  0
 13 14  2  0  0  0  0
 13 16  1  0  0  0  0
 15 17  1  0  0  0  0
 16 15  2  0  0  0  0
 18 17  1  0  0  0  0
 19 18  1  0  0  0  0
 20 21  1  0  0  0  0
 21 19  1  0  0  0  0
M  END
>  <MODEL>
6

>  <REMARK>
 VINA RESULT:    -5.297      1.917      2.858
 INTER + INTRA:         -10.005
 INTER:                  -8.877
 INTRA:                  -1.128
 UNBOUND:                -1.767
  Name = CHEMBL25948
  12 active torsions:
  status: ('A' for Active; 'I' for Inactive)
    1  A    between atoms: C_1  and  C_2
    2  A    between atoms: C_2  and  C_3
    3  A    between atoms: C_3  and  C_4
    4  A    between atoms: C_4  and  C_5
    5  A    between atoms: C_5  and  C_6
    6  A    between atoms: C_7  and  C_8
    7  A    between atoms: C_8  and  C_10
    8  A    between atoms: C_10  and  C_11
    9  A    between atoms: C_11  and  C_12
   10  A    between atoms: C_15  and  O_16
   11  A    between atoms: C_17  and  O_18
   12  A    between atoms: O_18  and  C_19
                            x       y       z     vdW  Elec       q    Type
                         _______ _______ _______ _____ _____    ______ ____

>  <TORSDO>
F 10

>  <SCORE>
-5.297

>  <RMSD_LB>
1.917

>  <RMSD_UB>
2.858

$$$$
CHEMBL25948
 OpenBabel10172500163D

 21 21  0  0  0  0  0  0  0  0999 V2000
  139.5910  137.5650  150.9310 C   0  0  0  0  0  2  0  0  0  0  0  0
  140.1370  137.8230  152.3120 C   0  0  0  0  0  0  0  0  0  0  0  0
  139.2750  138.1320  153.3680 C   0  0  0  0  0  3  0  0  0  0  0  0
  139.7860  138.4050  154.6350 C   0  0  0  0  0  3  0  0  0  0  0  0
  141.1650  138.3810  154.8610 C   0  0  0  0  0  0  0  0  0  0  0  0
  142.0480  138.0730  153.8210 C   0  0  0  0  0  0  0  0  0  0  0  0
  141.5190  137.7880  152.5530 C   0  0  0  0  0  3  0  0  0  0  0  0
  141.6130  138.6690  156.1210 O   0  0  0  0  0  0  0  0  0  0  0  0
  142.5340  138.7120  156.2930 H   0  0  0  0  0  0  0  0  0  0  0  0
  143.4180  138.0130  153.8600 O   0  0  0  0  0  0  0  0  0  0  0  0
  144.1350  139.2000  153.5520 C   0  0  0  0  0  1  0  0  0  0  0  0
  138.0720  137.6910  150.8960 C   0  0  0  0  0  2  0  0  0  0  0  0
  137.4730  136.7060  149.9130 C   0  0  0  0  0  0  0  0  0  0  0  0
  137.4890  136.8860  148.7030 O   0  0  0  0  0  0  0  0  0  0  0  0
  136.1700  135.5250  151.6280 C   0  0  0  0  0  3  0  0  0  0  0  0
  136.8930  135.4650  150.5010 C   0  0  0  0  0  3  0  0  0  0  0  0
  135.5570  134.3200  152.2770 C   0  0  0  0  0  2  0  0  0  0  0  0
  135.2760  134.5680  153.7570 C   0  0  0  0  0  2  0  0  0  0  0  0
  136.2440  135.6020  154.3310 C   0  0  0  0  0  2  0  0  0  0  0  0
  136.7900  137.0580  156.3030 C   0  0  0  0  0  1  0  0  0  0  0  0
  135.8520  135.9980  155.7510 C   0  0  0  0  0  2  0  0  0  0  0  0
  1  2  1  0  0  0  0
  2  7  2  0  0  0  0
  2  3  1  0  0  0  0
  3  4  2  0  0  0  0
  4  5  1  0  0  0  0
  5  8  1  0  0  0  0
  6 10  1  0  0  0  0
  6  5  2  0  0  0  0
  7  6  1  0  0  0  0
  8  9  1  0  0  0  0
 11 10  1  0  0  0  0
 12  1  1  0  0  0  0
 13 16  1  0  0  0  0
 13 12  1  0  0  0  0
 14 13  2  0  0  0  0
 15 17  1  0  0  0  0
 16 15  2  0  0  0  0
 17 18  1  0  0  0  0
 18 19  1  0  0  0  0
 19 21  1  0  0  0  0
 21 20  1  0  0  0  0
M  END
>  <MODEL>
7

>  <REMARK>
 VINA RESULT:    -5.122      4.650      7.800
 INTER + INTRA:          -9.733
 INTER:                  -8.549
 INTRA:                  -1.184
 UNBOUND:                -1.767
  Name = CHEMBL25948
  12 active torsions:
  status: ('A' for Active; 'I' for Inactive)
    1  A    between atoms: C_1  and  C_2
    2  A    between atoms: C_2  and  C_3
    3  A    between atoms: C_3  and  C_4
    4  A    between atoms: C_4  and  C_5
    5  A    between atoms: C_5  and  C_6
    6  A    between atoms: C_7  and  C_8
    7  A    between atoms: C_8  and  C_10
    8  A    between atoms: C_10  and  C_11
    9  A    between atoms: C_11  and  C_12
   10  A    between atoms: C_15  and  O_16
   11  A    between atoms: C_17  and  O_18
   12  A    between atoms: O_18  and  C_19
                            x       y       z     vdW  Elec       q    Type
                         _______ _______ _______ _____ _____    ______ ____

>  <TORSDO>
F 10

>  <SCORE>
-5.122

>  <RMSD_LB>
4.650

>  <RMSD_UB>
7.800

$$$$
CHEMBL25948
 OpenBabel10172500163D

 21 21  0  0  0  0  0  0  0  0999 V2000
  135.0180  136.2510  144.0860 C   0  0  0  0  0  2  0  0  0  0  0  0
  135.6970  135.1760  144.8950 C   0  0  0  0  0  0  0  0  0  0  0  0
  136.5450  135.5150  145.9530 C   0  0  0  0  0  3  0  0  0  0  0  0
  137.2000  134.5200  146.6750 C   0  0  0  0  0  3  0  0  0  0  0  0
  137.0220  133.1730  146.3440 C   0  0  0  0  0  0  0  0  0  0  0  0
  136.1780  132.8080  145.2900 C   0  0  0  0  0  0  0  0  0  0  0  0
  135.5150  133.8210  144.5790 C   0  0  0  0  0  3  0  0  0  0  0  0
  137.6980  132.2380  147.0780 O   0  0  0  0  0  0  0  0  0  0  0  0
  137.5710  132.1890  148.0050 H   0  0  0  0  0  0  0  0  0  0  0  0
  135.8960  131.5500  144.8250 O   0  0  0  0  0  0  0  0  0  0  0  0
  135.2470  131.4460  143.5650 C   0  0  0  0  0  1  0  0  0  0  0  0
  134.6620  137.4600  144.9450 C   0  0  0  0  0  2  0  0  0  0  0  0
  133.1600  137.5910  145.0940 C   0  0  0  0  0  0  0  0  0  0  0  0
  132.4360  137.9750  144.1850 O   0  0  0  0  0  0  0  0  0  0  0  0
  133.3870  137.0760  147.4850 C   0  0  0  0  0  3  0  0  0  0  0  0
  132.5940  137.1770  146.4100 C   0  0  0  0  0  3  0  0  0  0  0  0
  132.8890  136.6670  148.8390 C   0  0  0  0  0  2  0  0  0  0  0  0
  133.8440  135.6800  149.5070 C   0  0  0  0  0  2  0  0  0  0  0  0
  133.1510  134.3440  149.7730 C   0  0  0  0  0  2  0  0  0  0  0  0
  133.1970  133.3350  147.4740 C   0  0  0  0  0  1  0  0  0  0  0  0
  133.7270  133.2380  148.8940 C   0  0  0  0  0  2  0  0  0  0  0  0
  1  2  1  0  0  0  0
  1 12  1  0  0  0  0
  2  3  1  0  0  0  0
  3  4  2  0  0  0  0
  5  4  1  0  0  0  0
  5  8  1  0  0  0  0
  6  5  2  0  0  0  0
  7  2  2  0  0  0  0
  7  6  1  0  0  0  0
  8  9  1  0  0  0  0
 10  6  1  0  0  0  0
 11 10  1  0  0  0  0
 12 13  1  0  0  0  0
 13 16  1  0  0  0  0
 14 13  2  0  0  0  0
 15 17  1  0  0  0  0
 16 15  2  0  0  0  0
 17 18  1  0  0  0  0
 18 19  1  0  0  0  0
 20 21  1  0  0  0  0
 21 19  1  0  0  0  0
M  END
>  <MODEL>
8

>  <REMARK>
 VINA RESULT:    -5.020      5.925      8.094
 INTER + INTRA:          -9.574
 INTER:                  -7.808
 INTRA:                  -1.767
 UNBOUND:                -1.767
  Name = CHEMBL25948
  12 active torsions:
  status: ('A' for Active; 'I' for Inactive)
    1  A    between atoms: C_1  and  C_2
    2  A    between atoms: C_2  and  C_3
    3  A    between atoms: C_3  and  C_4
    4  A    between atoms: C_4  and  C_5
    5  A    between atoms: C_5  and  C_6
    6  A    between atoms: C_7  and  C_8
    7  A    between atoms: C_8  and  C_10
    8  A    between atoms: C_10  and  C_11
    9  A    between atoms: C_11  and  C_12
   10  A    between atoms: C_15  and  O_16
   11  A    between atoms: C_17  and  O_18
   12  A    between atoms: O_18  and  C_19
                            x       y       z     vdW  Elec       q    Type
                         _______ _______ _______ _____ _____    ______ ____

>  <TORSDO>
F 10

>  <SCORE>
-5.020

>  <RMSD_LB>
5.925

>  <RMSD_UB>
8.094

$$$$
CHEMBL25948
 OpenBabel10172500163D

 21 21  0  0  0  0  0  0  0  0999 V2000
  139.3580  137.2240  149.7630 C   0  0  0  0  0  2  0  0  0  0  0  0
  139.7670  137.5600  151.1740 C   0  0  0  0  0  0  0  0  0  0  0  0
  141.1060  137.4700  151.5640 C   0  0  0  0  0  3  0  0  0  0  0  0
  141.4750  137.7470  152.8790 C   0  0  0  0  0  3  0  0  0  0  0  0
  140.5100  138.1100  153.8220 C   0  0  0  0  0  0  0  0  0  0  0  0
  139.1640  138.2090  153.4570 C   0  0  0  0  0  0  0  0  0  0  0  0
  138.8070  137.9380  152.1260 C   0  0  0  0  0  3  0  0  0  0  0  0
  140.9260  138.3590  155.1010 O   0  0  0  0  0  0  0  0  0  0  0  0
  141.6440  138.9410  155.2560 H   0  0  0  0  0  0  0  0  0  0  0  0
  138.0920  138.5380  154.2460 O   0  0  0  0  0  0  0  0  0  0  0  0
  137.5670  137.5270  155.0950 C   0  0  0  0  0  1  0  0  0  0  0  0
  138.4840  135.9750  149.7150 C   0  0  0  0  0  2  0  0  0  0  0  0
  137.0850  136.3150  149.2440 C   0  0  0  0  0  0  0  0  0  0  0  0
  136.8580  136.8040  148.1450 O   0  0  0  0  0  0  0  0  0  0  0  0
  135.9160  134.7590  150.7420 C   0  0  0  0  0  3  0  0  0  0  0  0
  135.9770  135.9750  150.1810 C   0  0  0  0  0  3  0  0  0  0  0  0
  134.8330  134.3460  151.6920 C   0  0  0  0  0  2  0  0  0  0  0  0
  133.9680  133.2350  151.1000 C   0  0  0  0  0  2  0  0  0  0  0  0
  132.7880  133.8170  150.3230 C   0  0  0  0  0  2  0  0  0  0  0  0
  133.9720  132.4630  148.5710 C   0  0  0  0  0  1  0  0  0  0  0  0
  132.9020  133.5100  148.8330 C   0  0  0  0  0  2  0  0  0  0  0  0
  1  2  1  0  0  0  0
  2  3  2  0  0  0  0
  2  7  1  0  0  0  0
  3  4  1  0  0  0  0
  4  5  2  0  0  0  0
  5  8  1  0  0  0  0
  6  5  1  0  0  0  0
  6 10  1  0  0  0  0
  7  6  2  0  0  0  0
  8  9  1  0  0  0  0
 10 11  1  0  0  0  0
 12  1  1  0  0  0  0
 13 12  1  0  0  0  0
 13 16  1  0  0  0  0
 14 13  2  0  0  0  0
 15 17  1  0  0  0  0
 16 15  2  0  0  0  0
 18 17  1  0  0  0  0
 19 18  1  0  0  0  0
 20 21  1  0  0  0  0
 21 19  1  0  0  0  0
M  END
>  <MODEL>
9

>  <REMARK>
 VINA RESULT:    -4.999      3.833      8.317
 INTER + INTRA:          -9.542
 INTER:                  -8.537
 INTRA:                  -1.006
 UNBOUND:                -1.767
  Name = CHEMBL25948
  12 active torsions:
  status: ('A' for Active; 'I' for Inactive)
    1  A    between atoms: C_1  and  C_2
    2  A    between atoms: C_2  and  C_3
    3  A    between atoms: C_3  and  C_4
    4  A    between atoms: C_4  and  C_5
    5  A    between atoms: C_5  and  C_6
    6  A    between atoms: C_7  and  C_8
    7  A    between atoms: C_8  and  C_10
    8  A    between atoms: C_10  and  C_11
    9  A    between atoms: C_11  and  C_12
   10  A    between atoms: C_15  and  O_16
   11  A    between atoms: C_17  and  O_18
   12  A    between atoms: O_18  and  C_19
                            x       y       z     vdW  Elec       q    Type
                         _______ _______ _______ _____ _____    ______ ____

>  <TORSDO>
F 10

>  <SCORE>
-4.999

>  <RMSD_LB>
3.833

>  <RMSD_UB>
8.317

$$$$
