CHEMBL80692
 OpenBabel10172500513D

 28 28  0  0  0  0  0  0  0  0999 V2000
  143.8230  139.2870  152.2280 N   0  0  0  0  0  0  0  0  0  0  0  0
  144.1670  140.3100  151.3840 C   0  0  0  0  0  0  0  0  0  0  0  0
  143.6530  140.4610  150.2740 O   0  0  0  0  0  0  0  0  0  0  0  0
  144.2800  139.2020  153.0960 H   0  0  0  0  0  0  0  0  0  0  0  0
  142.7940  138.3250  151.8640 C   0  0  0  0  0  2  0  0  0  0  0  0
  140.1290  138.5770  154.6220 C   0  0  0  0  0  0  0  0  0  0  0  0
  141.3530  138.4000  153.9630 C   0  0  0  0  0  3  0  0  0  0  0  0
  141.4710  138.5360  152.5690 C   0  0  0  0  0  0  0  0  0  0  0  0
  140.3110  138.8300  151.8370 C   0  0  0  0  0  3  0  0  0  0  0  0
  139.0760  139.0010  152.4800 C   0  0  0  0  0  3  0  0  0  0  0  0
  138.9920  138.8760  153.8670 C   0  0  0  0  0  0  0  0  0  0  0  0
  140.4690  137.2980  156.6000 C   0  0  0  0  0  1  0  0  0  0  0  0
  139.9700  138.4800  155.9820 O   0  0  0  0  0  0  0  0  0  0  0  0
  137.7970  139.0380  154.5120 O   0  0  0  0  0  0  0  0  0  0  0  0
  137.0330  138.5880  154.2070 H   0  0  0  0  0  0  0  0  0  0  0  0
  145.2370  141.2270  151.9200 C   0  0  0  0  0  2  0  0  0  0  0  0
  145.4950  142.3750  150.9410 C   0  0  0  0  0  2  0  0  0  0  0  0
  146.9440  142.4350  150.4780 C   0  0  0  0  0  2  0  0  0  0  0  0
  147.7820  141.3910  151.2040 C   0  0  0  0  0  2  0  0  0  0  0  0
  148.8280  142.0560  152.0770 C   0  0  0  0  0  2  0  0  0  0  0  0
  148.5620  141.7480  153.5430 C   0  0  0  0  0  2  0  0  0  0  0  0
  148.9050  140.2980  153.8490 C   0  0  0  0  0  2  0  0  0  0  0  0
  147.9620  139.7420  154.9110 C   0  0  0  0  0  2  0  0  0  0  0  0
  146.8320  138.9560  154.2590 C   0  0  0  0  0  2  0  0  0  0  0  0
  147.3110  138.1460  153.0560 C   0  0  0  0  0  2  0  0  0  0  0  0
  146.3520  136.9960  152.8040 C   0  0  0  0  0  0  0  0  0  0  0  0
  145.8800  136.7140  151.7280 O   0  0  0  0  0  0  0  0  0  0  0  0
  146.0570  136.2860  153.9150 O   0  0  0  0  0  1  0  0  0  0  0  0
  1  4  1  0  0  0  0
  2 16  1  0  0  0  0
  2  1  1  0  0  0  0
  3  2  2  0  0  0  0
  5  1  1  0  0  0  0
  5  8  1  0  0  0  0
  6 13  1  0  0  0  0
  7  6  1  0  0  0  0
  8  7  2  0  0  0  0
  9 10  2  0  0  0  0
  9  8  1  0  0  0  0
 10 11  1  0  0  0  0
 11 14  1  0  0  0  0
 11  6  2  0  0  0  0
 13 12  1  0  0  0  0
 15 14  1  0  0  0  0
 17 16  1  0  0  0  0
 18 17  1  0  0  0  0
 18 19  1  0  0  0  0
 19 20  1  0  0  0  0
 20 21  1  0  0  0  0
 21 22  1  0  0  0  0
 22 23  1  0  0  0  0
 24 23  1  0  0  0  0
 25 24  1  0  0  0  0
 26 25  1  0  0  0  0
 26 28  1  0  0  0  0
 27 26  2  0  0  0  0
M  END
>  <MODEL>
1

>  <REMARK>
 VINA RESULT:    -6.049      0.000      0.000
 INTER + INTRA:         -13.389
 INTER:                 -11.346
 INTRA:                  -2.043
 UNBOUND:                -2.212
  Name = CHEMBL80692
  16 active torsions:
  status: ('A' for Active; 'I' for Inactive)
    1  A    between atoms: C_1  and  O_2
    2  A    between atoms: O_2  and  C_3
    3  A    between atoms: C_5  and  C_6
    4  A    between atoms: C_6  and  N_7
    5  A    between atoms: C_8  and  C_10
    6  A    between atoms: C_10  and  C_11
    7  A    between atoms: C_11  and  C_12
    8  A    between atoms: C_12  and  C_13
    9  A    between atoms: C_13  and  C_14
   10  A    between atoms: C_14  and  C_15
   11  A    between atoms: C_15  and  C_16
   12  A    between atoms: C_16  and  C_17
   13  A    between atoms: C_17  and  C_18
   14  A    between atoms: C_18  and  C_19
   15  A    between atoms: C_19  and  C_20
   16  A    between atoms: C_25  and  O_26
                            x       y       z     vdW  Elec       q    Type
                         _______ _______ _______ _____ _____    ______ ____

>  <TORSDO>
F 15

>  <SCORE>
-6.049

>  <RMSD_LB>
0.000

>  <RMSD_UB>
0.000

$$$$
CHEMBL80692
 OpenBabel10172500513D

 28 28  0  0  0  0  0  0  0  0999 V2000
  138.8230  136.6630  150.2000 N   0  0  0  0  0  0  0  0  0  0  0  0
  137.5990  137.1930  149.8830 C   0  0  0  0  0  0  0  0  0  0  0  0
  137.4210  138.3980  149.6980 O   0  0  0  0  0  0  0  0  0  0  0  0
  138.9040  135.6950  150.3570 H   0  0  0  0  0  0  0  0  0  0  0  0
  140.0030  137.5080  150.3090 C   0  0  0  0  0  2  0  0  0  0  0  0
  139.9940  138.5850  153.9980 C   0  0  0  0  0  0  0  0  0  0  0  0
  139.5830  138.3280  152.6840 C   0  0  0  0  0  3  0  0  0  0  0  0
  140.4510  137.7650  151.7330 C   0  0  0  0  0  0  0  0  0  0  0  0
  141.7680  137.4880  152.1270 C   0  0  0  0  0  3  0  0  0  0  0  0
  142.1980  137.7480  153.4370 C   0  0  0  0  0  3  0  0  0  0  0  0
  141.3100  138.2930  154.3650 C   0  0  0  0  0  0  0  0  0  0  0  0
  138.0570  138.3190  155.3550 C   0  0  0  0  0  1  0  0  0  0  0  0
  139.1760  139.1100  154.9690 O   0  0  0  0  0  0  0  0  0  0  0  0
  141.7110  138.5540  155.6460 O   0  0  0  0  0  0  0  0  0  0  0  0
  141.0930  138.8710  156.2760 H   0  0  0  0  0  0  0  0  0  0  0  0
  136.4860  136.1790  149.7940 C   0  0  0  0  0  2  0  0  0  0  0  0
  136.5700  135.4100  148.4740 C   0  0  0  0  0  2  0  0  0  0  0  0
  135.6190  135.9560  147.4180 C   0  0  0  0  0  2  0  0  0  0  0  0
  134.3110  136.4070  148.0550 C   0  0  0  0  0  2  0  0  0  0  0  0
  133.1650  135.5200  147.6120 C   0  0  0  0  0  2  0  0  0  0  0  0
  132.7420  134.6000  148.7490 C   0  0  0  0  0  2  0  0  0  0  0  0
  133.4250  133.2480  148.6160 C   0  0  0  0  0  2  0  0  0  0  0  0
  134.1840  132.9090  149.8950 C   0  0  0  0  0  2  0  0  0  0  0  0
  133.5650  133.6280  151.0860 C   0  0  0  0  0  2  0  0  0  0  0  0
  134.6170  134.1050  152.0850 C   0  0  0  0  0  2  0  0  0  0  0  0
  133.9930  135.1040  153.0420 C   0  0  0  0  0  0  0  0  0  0  0  0
  133.3670  134.8120  154.0320 O   0  0  0  0  0  1  0  0  0  0  0  0
  134.2010  136.3920  152.6890 O   0  0  0  0  0  0  0  0  0  0  0  0
  1  5  1  0  0  0  0
  1  4  1  0  0  0  0
  2  1  1  0  0  0  0
  3  2  2  0  0  0  0
  5  8  1  0  0  0  0
  6 11  1  0  0  0  0
  6 13  1  0  0  0  0
  7  6  2  0  0  0  0
  8  9  2  0  0  0  0
  8  7  1  0  0  0  0
  9 10  1  0  0  0  0
 10 11  2  0  0  0  0
 11 14  1  0  0  0  0
 13 12  1  0  0  0  0
 14 15  1  0  0  0  0
 16  2  1  0  0  0  0
 17 16  1  0  0  0  0
 18 19  1  0  0  0  0
 18 17  1  0  0  0  0
 20 19  1  0  0  0  0
 20 21  1  0  0  0  0
 22 21  1  0  0  0  0
 22 23  1  0  0  0  0
 23 24  1  0  0  0  0
 24 25  1  0  0  0  0
 25 26  1  0  0  0  0
 26 27  1  0  0  0  0
 28 26  2  0  0  0  0
M  END
>  <MODEL>
2

>  <REMARK>
 VINA RESULT:    -5.915      5.338     10.573
 INTER + INTRA:         -13.141
 INTER:                 -11.237
 INTRA:                  -1.904
 UNBOUND:                -2.212
  Name = CHEMBL80692
  16 active torsions:
  status: ('A' for Active; 'I' for Inactive)
    1  A    between atoms: C_1  and  O_2
    2  A    between atoms: O_2  and  C_3
    3  A    between atoms: C_5  and  C_6
    4  A    between atoms: C_6  and  N_7
    5  A    between atoms: C_8  and  C_10
    6  A    between atoms: C_10  and  C_11
    7  A    between atoms: C_11  and  C_12
    8  A    between atoms: C_12  and  C_13
    9  A    between atoms: C_13  and  C_14
   10  A    between atoms: C_14  and  C_15
   11  A    between atoms: C_15  and  C_16
   12  A    between atoms: C_16  and  C_17
   13  A    between atoms: C_17  and  C_18
   14  A    between atoms: C_18  and  C_19
   15  A    between atoms: C_19  and  C_20
   16  A    between atoms: C_25  and  O_26
                            x       y       z     vdW  Elec       q    Type
                         _______ _______ _______ _____ _____    ______ ____

>  <TORSDO>
F 15

>  <SCORE>
-5.915

>  <RMSD_LB>
5.338

>  <RMSD_UB>
10.573

$$$$
CHEMBL80692
 OpenBabel10172500513D

 28 28  0  0  0  0  0  0  0  0999 V2000
  138.1480  137.4110  154.5560 N   0  0  0  0  0  0  0  0  0  0  0  0
  138.8780  138.4970  154.1480 C   0  0  0  0  0  0  0  0  0  0  0  0
  139.4620  139.2430  154.9360 O   0  0  0  0  0  0  0  0  0  0  0  0
  137.6850  136.8600  153.8840 H   0  0  0  0  0  0  0  0  0  0  0  0
  138.0440  137.0600  155.9640 C   0  0  0  0  0  2  0  0  0  0  0  0
  134.7990  135.0290  155.6190 C   0  0  0  0  0  0  0  0  0  0  0  0
  135.9330  135.7920  155.3110 C   0  0  0  0  0  3  0  0  0  0  0  0
  136.8310  136.2200  156.3040 C   0  0  0  0  0  0  0  0  0  0  0  0
  136.5460  135.8850  157.6360 C   0  0  0  0  0  3  0  0  0  0  0  0
  135.4100  135.1300  157.9620 C   0  0  0  0  0  3  0  0  0  0  0  0
  134.5450  134.7050  156.9540 C   0  0  0  0  0  0  0  0  0  0  0  0
  134.4530  133.8180  153.6000 C   0  0  0  0  0  1  0  0  0  0  0  0
  133.9080  134.5660  154.6820 O   0  0  0  0  0  0  0  0  0  0  0  0
  133.4310  133.9680  157.2530 O   0  0  0  0  0  0  0  0  0  0  0  0
  133.5160  133.0640  157.4860 H   0  0  0  0  0  0  0  0  0  0  0  0
  138.8960  138.7110  152.6550 C   0  0  0  0  0  2  0  0  0  0  0  0
  138.3840  137.4630  151.9320 C   0  0  0  0  0  2  0  0  0  0  0  0
  139.2450  137.0870  150.7340 C   0  0  0  0  0  2  0  0  0  0  0  0
  138.4020  137.0210  149.4670 C   0  0  0  0  0  2  0  0  0  0  0  0
  138.3060  135.5950  148.9630 C   0  0  0  0  0  2  0  0  0  0  0  0
  136.8500  135.2130  148.7380 C   0  0  0  0  0  2  0  0  0  0  0  0
  136.2070  134.7880  150.0480 C   0  0  0  0  0  2  0  0  0  0  0  0
  135.0450  135.7140  150.3940 C   0  0  0  0  0  2  0  0  0  0  0  0
  133.7340  135.1360  149.8780 C   0  0  0  0  0  2  0  0  0  0  0  0
  133.7030  133.6110  149.9580 C   0  0  0  0  0  2  0  0  0  0  0  0
  133.3140  133.0390  148.6070 C   0  0  0  0  0  0  0  0  0  0  0  0
  133.9280  132.1820  148.0180 O   0  0  0  0  0  0  0  0  0  0  0  0
  132.1870  133.5830  148.0960 O   0  0  0  0  0  1  0  0  0  0  0  0
  1  5  1  0  0  0  0
  2  1  1  0  0  0  0
  2  3  2  0  0  0  0
  4  1  1  0  0  0  0
  5  8  1  0  0  0  0
  6 11  1  0  0  0  0
  7  6  2  0  0  0  0
  7  8  1  0  0  0  0
  8  9  2  0  0  0  0
  9 10  1  0  0  0  0
 11 14  1  0  0  0  0
 11 10  2  0  0  0  0
 12 13  1  0  0  0  0
 13  6  1  0  0  0  0
 14 15  1  0  0  0  0
 16  2  1  0  0  0  0
 17 16  1  0  0  0  0
 18 17  1  0  0  0  0
 19 18  1  0  0  0  0
 20 19  1  0  0  0  0
 21 20  1  0  0  0  0
 21 22  1  0  0  0  0
 22 23  1  0  0  0  0
 24 25  1  0  0  0  0
 24 23  1  0  0  0  0
 26 25  1  0  0  0  0
 27 26  2  0  0  0  0
 28 26  1  0  0  0  0
M  END
>  <MODEL>
3

>  <REMARK>
 VINA RESULT:    -5.892      6.621     10.261
 INTER + INTRA:         -13.098
 INTER:                 -11.575
 INTRA:                  -1.523
 UNBOUND:                -2.212
  Name = CHEMBL80692
  16 active torsions:
  status: ('A' for Active; 'I' for Inactive)
    1  A    between atoms: C_1  and  O_2
    2  A    between atoms: O_2  and  C_3
    3  A    between atoms: C_5  and  C_6
    4  A    between atoms: C_6  and  N_7
    5  A    between atoms: C_8  and  C_10
    6  A    between atoms: C_10  and  C_11
    7  A    between atoms: C_11  and  C_12
    8  A    between atoms: C_12  and  C_13
    9  A    between atoms: C_13  and  C_14
   10  A    between atoms: C_14  and  C_15
   11  A    between atoms: C_15  and  C_16
   12  A    between atoms: C_16  and  C_17
   13  A    between atoms: C_17  and  C_18
   14  A    between atoms: C_18  and  C_19
   15  A    between atoms: C_19  and  C_20
   16  A    between atoms: C_25  and  O_26
                            x       y       z     vdW  Elec       q    Type
                         _______ _______ _______ _____ _____    ______ ____

>  <TORSDO>
F 15

>  <SCORE>
-5.892

>  <RMSD_LB>
6.621

>  <RMSD_UB>
10.261

$$$$
CHEMBL80692
 OpenBabel10172500513D

 28 28  0  0  0  0  0  0  0  0999 V2000
  146.0220  141.5440  148.8720 N   0  0  0  0  0  0  0  0  0  0  0  0
  146.1750  141.3190  147.5280 C   0  0  0  0  0  0  0  0  0  0  0  0
  146.8660  142.0380  146.8050 O   0  0  0  0  0  0  0  0  0  0  0  0
  145.4420  140.9490  149.3990 H   0  0  0  0  0  0  0  0  0  0  0  0
  146.7030  142.6480  149.5310 C   0  0  0  0  0  2  0  0  0  0  0  0
  146.8270  141.9240  153.3040 C   0  0  0  0  0  0  0  0  0  0  0  0
  146.3540  142.2130  152.0170 C   0  0  0  0  0  3  0  0  0  0  0  0
  147.2210  142.3170  150.9150 C   0  0  0  0  0  0  0  0  0  0  0  0
  148.5960  142.1510  151.1420 C   0  0  0  0  0  3  0  0  0  0  0  0
  149.0850  141.8700  152.4260 C   0  0  0  0  0  3  0  0  0  0  0  0
  148.2000  141.7570  153.4980 C   0  0  0  0  0  0  0  0  0  0  0  0
  145.2200  140.6100  154.4680 C   0  0  0  0  0  1  0  0  0  0  0  0
  146.0180  141.7880  154.4050 O   0  0  0  0  0  0  0  0  0  0  0  0
  148.6590  141.4850  154.7580 O   0  0  0  0  0  0  0  0  0  0  0  0
  148.0580  141.2360  155.4330 H   0  0  0  0  0  0  0  0  0  0  0  0
  145.4140  140.1250  147.0070 C   0  0  0  0  0  2  0  0  0  0  0  0
  146.3790  139.0930  146.4190 C   0  0  0  0  0  2  0  0  0  0  0  0
  147.3510  138.5460  147.4550 C   0  0  0  0  0  2  0  0  0  0  0  0
  146.6060  137.7730  148.5350 C   0  0  0  0  0  2  0  0  0  0  0  0
  146.9800  138.2810  149.9130 C   0  0  0  0  0  2  0  0  0  0  0  0
  145.7280  138.5360  150.7390 C   0  0  0  0  0  2  0  0  0  0  0  0
  146.0380  138.4080  152.2220 C   0  0  0  0  0  2  0  0  0  0  0  0
  146.5170  136.9960  152.5440 C   0  0  0  0  0  2  0  0  0  0  0  0
  146.7010  136.8280  154.0470 C   0  0  0  0  0  2  0  0  0  0  0  0
  148.0160  137.4280  154.5390 C   0  0  0  0  0  2  0  0  0  0  0  0
  147.8950  137.7770  156.0120 C   0  0  0  0  0  0  0  0  0  0  0  0
  147.0940  138.5530  156.4740 O   0  0  0  0  0  0  0  0  0  0  0  0
  148.7860  137.1270  156.7940 O   0  0  0  0  0  1  0  0  0  0  0  0
  1  4  1  0  0  0  0
  1  5  1  0  0  0  0
  2  1  1  0  0  0  0
  3  2  2  0  0  0  0
  5  8  1  0  0  0  0
  6 11  1  0  0  0  0
  6 13  1  0  0  0  0
  7  6  2  0  0  0  0
  8  9  2  0  0  0  0
  8  7  1  0  0  0  0
  9 10  1  0  0  0  0
 10 11  2  0  0  0  0
 11 14  1  0  0  0  0
 13 12  1  0  0  0  0
 14 15  1  0  0  0  0
 16  2  1  0  0  0  0
 17 16  1  0  0  0  0
 17 18  1  0  0  0  0
 18 19  1  0  0  0  0
 19 20  1  0  0  0  0
 20 21  1  0  0  0  0
 21 22  1  0  0  0  0
 22 23  1  0  0  0  0
 23 24  1  0  0  0  0
 24 25  1  0  0  0  0
 25 26  1  0  0  0  0
 26 27  2  0  0  0  0
 26 28  1  0  0  0  0
M  END
>  <MODEL>
4

>  <REMARK>
 VINA RESULT:    -5.714      4.266      6.193
 INTER + INTRA:         -12.770
 INTER:                 -10.984
 INTRA:                  -1.786
 UNBOUND:                -2.212
  Name = CHEMBL80692
  16 active torsions:
  status: ('A' for Active; 'I' for Inactive)
    1  A    between atoms: C_1  and  O_2
    2  A    between atoms: O_2  and  C_3
    3  A    between atoms: C_5  and  C_6
    4  A    between atoms: C_6  and  N_7
    5  A    between atoms: C_8  and  C_10
    6  A    between atoms: C_10  and  C_11
    7  A    between atoms: C_11  and  C_12
    8  A    between atoms: C_12  and  C_13
    9  A    between atoms: C_13  and  C_14
   10  A    between atoms: C_14  and  C_15
   11  A    between atoms: C_15  and  C_16
   12  A    between atoms: C_16  and  C_17
   13  A    between atoms: C_17  and  C_18
   14  A    between atoms: C_18  and  C_19
   15  A    between atoms: C_19  and  C_20
   16  A    between atoms: C_25  and  O_26
                            x       y       z     vdW  Elec       q    Type
                         _______ _______ _______ _____ _____    ______ ____

>  <TORSDO>
F 15

>  <SCORE>
-5.714

>  <RMSD_LB>
4.266

>  <RMSD_UB>
6.193

$$$$
CHEMBL80692
 OpenBabel10172500513D

 28 28  0  0  0  0  0  0  0  0999 V2000
  145.2830  138.1530  153.2150 N   0  0  0  0  0  0  0  0  0  0  0  0
  146.1870  138.7720  154.0380 C   0  0  0  0  0  0  0  0  0  0  0  0
  146.1570  138.6630  155.2650 O   0  0  0  0  0  0  0  0  0  0  0  0
  145.3420  138.2910  152.2420 H   0  0  0  0  0  0  0  0  0  0  0  0
  144.2390  137.2960  153.7550 C   0  0  0  0  0  2  0  0  0  0  0  0
  140.6190  138.5600  154.0230 C   0  0  0  0  0  0  0  0  0  0  0  0
  141.9260  138.1790  154.3550 C   0  0  0  0  0  3  0  0  0  0  0  0
  142.8340  137.7230  153.3840 C   0  0  0  0  0  0  0  0  0  0  0  0
  142.3860  137.6280  152.0580 C   0  0  0  0  0  3  0  0  0  0  0  0
  141.0780  137.9970  151.7110 C   0  0  0  0  0  3  0  0  0  0  0  0
  140.2030  138.4620  152.6930 C   0  0  0  0  0  0  0  0  0  0  0  0
  139.0710  138.0710  155.7620 C   0  0  0  0  0  1  0  0  0  0  0  0
  139.7060  139.0370  154.9310 O   0  0  0  0  0  0  0  0  0  0  0  0
  138.9230  138.8260  152.3740 O   0  0  0  0  0  0  0  0  0  0  0  0
  138.2000  138.4610  152.8470 H   0  0  0  0  0  0  0  0  0  0  0  0
  147.2130  139.6110  153.3180 C   0  0  0  0  0  2  0  0  0  0  0  0
  147.2650  141.0190  153.9150 C   0  0  0  0  0  2  0  0  0  0  0  0
  146.2380  141.9550  153.2930 C   0  0  0  0  0  2  0  0  0  0  0  0
  146.6850  142.3970  151.9060 C   0  0  0  0  0  2  0  0  0  0  0  0
  145.5330  142.3230  150.9230 C   0  0  0  0  0  2  0  0  0  0  0  0
  144.6240  141.1520  151.2650 C   0  0  0  0  0  2  0  0  0  0  0  0
  144.4580  140.2430  150.0580 C   0  0  0  0  0  2  0  0  0  0  0  0
  145.6050  140.4490  149.0750 C   0  0  0  0  0  2  0  0  0  0  0  0
  146.6460  139.3490  149.2350 C   0  0  0  0  0  2  0  0  0  0  0  0
  146.5210  138.2730  148.1580 C   0  0  0  0  0  2  0  0  0  0  0  0
  147.5650  138.5090  147.0810 C   0  0  0  0  0  0  0  0  0  0  0  0
  147.5670  139.4420  146.3150 O   0  0  0  0  0  0  0  0  0  0  0  0
  148.5260  137.5590  147.0460 O   0  0  0  0  0  1  0  0  0  0  0  0
  1  5  1  0  0  0  0
  1  2  1  0  0  0  0
  2  3  2  0  0  0  0
  4  1  1  0  0  0  0
  6  7  1  0  0  0  0
  6 13  1  0  0  0  0
  8  5  1  0  0  0  0
  8  7  2  0  0  0  0
  9  8  1  0  0  0  0
 10  9  2  0  0  0  0
 10 11  1  0  0  0  0
 11  6  2  0  0  0  0
 13 12  1  0  0  0  0
 14 11  1  0  0  0  0
 14 15  1  0  0  0  0
 16 17  1  0  0  0  0
 16  2  1  0  0  0  0
 18 17  1  0  0  0  0
 19 18  1  0  0  0  0
 20 21  1  0  0  0  0
 20 19  1  0  0  0  0
 22 21  1  0  0  0  0
 23 24  1  0  0  0  0
 23 22  1  0  0  0  0
 25 24  1  0  0  0  0
 26 25  1  0  0  0  0
 27 26  2  0  0  0  0
 28 26  1  0  0  0  0
M  END
>  <MODEL>
5

>  <REMARK>
 VINA RESULT:    -5.601      2.557      3.974
 INTER + INTRA:         -12.561
 INTER:                 -10.717
 INTRA:                  -1.844
 UNBOUND:                -2.212
  Name = CHEMBL80692
  16 active torsions:
  status: ('A' for Active; 'I' for Inactive)
    1  A    between atoms: C_1  and  O_2
    2  A    between atoms: O_2  and  C_3
    3  A    between atoms: C_5  and  C_6
    4  A    between atoms: C_6  and  N_7
    5  A    between atoms: C_8  and  C_10
    6  A    between atoms: C_10  and  C_11
    7  A    between atoms: C_11  and  C_12
    8  A    between atoms: C_12  and  C_13
    9  A    between atoms: C_13  and  C_14
   10  A    between atoms: C_14  and  C_15
   11  A    between atoms: C_15  and  C_16
   12  A    between atoms: C_16  and  C_17
   13  A    between atoms: C_17  and  C_18
   14  A    between atoms: C_18  and  C_19
   15  A    between atoms: C_19  and  C_20
   16  A    between atoms: C_25  and  O_26
                            x       y       z     vdW  Elec       q    Type
                         _______ _______ _______ _____ _____    ______ ____

>  <TORSDO>
F 15

>  <SCORE>
-5.601

>  <RMSD_LB>
2.557

>  <RMSD_UB>
3.974

$$$$
CHEMBL80692
 OpenBabel10172500513D

 28 28  0  0  0  0  0  0  0  0999 V2000
  138.9760  137.4950  155.1430 N   0  0  0  0  0  0  0  0  0  0  0  0
  139.3390  138.5820  154.3910 C   0  0  0  0  0  0  0  0  0  0  0  0
  138.6500  139.6010  154.3150 O   0  0  0  0  0  0  0  0  0  0  0  0
  139.5550  136.6990  155.1530 H   0  0  0  0  0  0  0  0  0  0  0  0
  137.7510  137.4980  155.9280 C   0  0  0  0  0  2  0  0  0  0  0  0
  134.9080  134.9130  155.9860 C   0  0  0  0  0  0  0  0  0  0  0  0
  135.8480  135.8680  156.3910 C   0  0  0  0  0  3  0  0  0  0  0  0
  136.7250  136.4790  155.4780 C   0  0  0  0  0  0  0  0  0  0  0  0
  136.6550  136.0820  154.1340 C   0  0  0  0  0  3  0  0  0  0  0  0
  135.7260  135.1190  153.7140 C   0  0  0  0  0  3  0  0  0  0  0  0
  134.8570  134.5420  154.6400 C   0  0  0  0  0  0  0  0  0  0  0  0
  134.0090  134.7640  158.1850 C   0  0  0  0  0  1  0  0  0  0  0  0
  134.0140  134.3080  156.8360 O   0  0  0  0  0  0  0  0  0  0  0  0
  133.9440  133.6010  154.2500 O   0  0  0  0  0  0  0  0  0  0  0  0
  133.5180  133.6770  153.4180 H   0  0  0  0  0  0  0  0  0  0  0  0
  140.6440  138.4210  153.6520 C   0  0  0  0  0  2  0  0  0  0  0  0
  140.4340  138.6190  152.1500 C   0  0  0  0  0  2  0  0  0  0  0  0
  139.4250  137.6380  151.5670 C   0  0  0  0  0  2  0  0  0  0  0  0
  140.0380  136.8630  150.4090 C   0  0  0  0  0  2  0  0  0  0  0  0
  139.0410  136.7110  149.2780 C   0  0  0  0  0  2  0  0  0  0  0  0
  137.9850  137.8030  149.3570 C   0  0  0  0  0  2  0  0  0  0  0  0
  136.5980  137.2140  149.1490 C   0  0  0  0  0  2  0  0  0  0  0  0
  136.6650  135.6910  149.1400 C   0  0  0  0  0  2  0  0  0  0  0  0
  135.5390  135.1050  149.9810 C   0  0  0  0  0  2  0  0  0  0  0  0
  134.7390  136.1840  150.7090 C   0  0  0  0  0  2  0  0  0  0  0  0
  133.2830  135.7630  150.7990 C   0  0  0  0  0  0  0  0  0  0  0  0
  132.3610  136.3590  150.2960 O   0  0  0  0  0  0  0  0  0  0  0  0
  133.0930  134.6300  151.5100 O   0  0  0  0  0  1  0  0  0  0  0  0
  1  4  1  0  0  0  0
  1  5  1  0  0  0  0
  2  1  1  0  0  0  0
  3  2  2  0  0  0  0
  6  7  1  0  0  0  0
  6 13  1  0  0  0  0
  8  5  1  0  0  0  0
  8  7  2  0  0  0  0
  9  8  1  0  0  0  0
 10  9  2  0  0  0  0
 10 11  1  0  0  0  0
 11  6  2  0  0  0  0
 13 12  1  0  0  0  0
 14 11  1  0  0  0  0
 15 14  1  0  0  0  0
 16  2  1  0  0  0  0
 17 16  1  0  0  0  0
 18 17  1  0  0  0  0
 19 18  1  0  0  0  0
 20 21  1  0  0  0  0
 20 19  1  0  0  0  0
 22 21  1  0  0  0  0
 23 22  1  0  0  0  0
 23 24  1  0  0  0  0
 24 25  1  0  0  0  0
 25 26  1  0  0  0  0
 26 28  1  0  0  0  0
 27 26  2  0  0  0  0
M  END
>  <MODEL>
6

>  <REMARK>
 VINA RESULT:    -5.571      5.721      9.310
 INTER + INTRA:         -12.505
 INTER:                 -10.493
 INTRA:                  -2.012
 UNBOUND:                -2.212
  Name = CHEMBL80692
  16 active torsions:
  status: ('A' for Active; 'I' for Inactive)
    1  A    between atoms: C_1  and  O_2
    2  A    between atoms: O_2  and  C_3
    3  A    between atoms: C_5  and  C_6
    4  A    between atoms: C_6  and  N_7
    5  A    between atoms: C_8  and  C_10
    6  A    between atoms: C_10  and  C_11
    7  A    between atoms: C_11  and  C_12
    8  A    between atoms: C_12  and  C_13
    9  A    between atoms: C_13  and  C_14
   10  A    between atoms: C_14  and  C_15
   11  A    between atoms: C_15  and  C_16
   12  A    between atoms: C_16  and  C_17
   13  A    between atoms: C_17  and  C_18
   14  A    between atoms: C_18  and  C_19
   15  A    between atoms: C_19  and  C_20
   16  A    between atoms: C_25  and  O_26
                            x       y       z     vdW  Elec       q    Type
                         _______ _______ _______ _____ _____    ______ ____

>  <TORSDO>
F 15

>  <SCORE>
-5.571

>  <RMSD_LB>
5.721

>  <RMSD_UB>
9.310

$$$$
CHEMBL80692
 OpenBabel10172500513D

 28 28  0  0  0  0  0  0  0  0999 V2000
  136.4780  136.0910  149.5940 N   0  0  0  0  0  0  0  0  0  0  0  0
  135.9420  136.5300  148.4120 C   0  0  0  0  0  0  0  0  0  0  0  0
  135.7540  137.7230  148.1660 O   0  0  0  0  0  0  0  0  0  0  0  0
  136.5880  135.1240  149.7460 H   0  0  0  0  0  0  0  0  0  0  0  0
  136.8870  137.0280  150.6290 C   0  0  0  0  0  2  0  0  0  0  0  0
  140.6590  136.8820  149.9070 C   0  0  0  0  0  0  0  0  0  0  0  0
  139.2700  136.7810  149.7610 C   0  0  0  0  0  3  0  0  0  0  0  0
  138.3880  137.1570  150.7890 C   0  0  0  0  0  0  0  0  0  0  0  0
  138.9400  137.6160  151.9940 C   0  0  0  0  0  3  0  0  0  0  0  0
  140.3290  137.7130  152.1590 C   0  0  0  0  0  3  0  0  0  0  0  0
  141.1810  137.3480  151.1160 C   0  0  0  0  0  0  0  0  0  0  0  0
  141.5530  135.1970  148.4820 C   0  0  0  0  0  1  0  0  0  0  0  0
  141.5590  136.5510  148.9240 O   0  0  0  0  0  0  0  0  0  0  0  0
  142.5380  137.4350  151.2590 O   0  0  0  0  0  0  0  0  0  0  0  0
  143.1030  137.0100  150.6430 H   0  0  0  0  0  0  0  0  0  0  0  0
  135.5870  135.4310  147.4420 C   0  0  0  0  0  2  0  0  0  0  0  0
  135.9710  134.0670  148.0200 C   0  0  0  0  0  2  0  0  0  0  0  0
  134.9650  132.9790  147.6690 C   0  0  0  0  0  2  0  0  0  0  0  0
  134.1300  132.6060  148.8860 C   0  0  0  0  0  2  0  0  0  0  0  0
  132.8130  133.3570  148.8830 C   0  0  0  0  0  2  0  0  0  0  0  0
  132.4800  133.8420  150.2860 C   0  0  0  0  0  2  0  0  0  0  0  0
  133.1470  135.1820  150.5540 C   0  0  0  0  0  2  0  0  0  0  0  0
  133.5360  135.2950  152.0240 C   0  0  0  0  0  2  0  0  0  0  0  0
  134.3870  134.1040  152.4420 C   0  0  0  0  0  2  0  0  0  0  0  0
  135.7820  134.5230  152.9030 C   0  0  0  0  0  2  0  0  0  0  0  0
  135.6710  135.3470  154.1730 C   0  0  0  0  0  0  0  0  0  0  0  0
  135.1420  134.9760  155.1930 O   0  0  0  0  0  1  0  0  0  0  0  0
  136.2310  136.5730  154.0700 O   0  0  0  0  0  0  0  0  0  0  0  0
  1  4  1  0  0  0  0
  1  5  1  0  0  0  0
  2  1  1  0  0  0  0
  3  2  2  0  0  0  0
  5  8  1  0  0  0  0
  6 11  1  0  0  0  0
  7  6  2  0  0  0  0
  7  8  1  0  0  0  0
  8  9  2  0  0  0  0
  9 10  1  0  0  0  0
 11 14  1  0  0  0  0
 11 10  2  0  0  0  0
 12 13  1  0  0  0  0
 13  6  1  0  0  0  0
 15 14  1  0  0  0  0
 16 17  1  0  0  0  0
 16  2  1  0  0  0  0
 18 17  1  0  0  0  0
 18 19  1  0  0  0  0
 20 19  1  0  0  0  0
 20 21  1  0  0  0  0
 21 22  1  0  0  0  0
 22 23  1  0  0  0  0
 23 24  1  0  0  0  0
 24 25  1  0  0  0  0
 25 26  1  0  0  0  0
 26 27  1  0  0  0  0
 28 26  2  0  0  0  0
M  END
>  <MODEL>
7

>  <REMARK>
 VINA RESULT:    -5.524      5.873     11.124
 INTER + INTRA:         -12.418
 INTER:                 -10.311
 INTRA:                  -2.107
 UNBOUND:                -2.212
  Name = CHEMBL80692
  16 active torsions:
  status: ('A' for Active; 'I' for Inactive)
    1  A    between atoms: C_1  and  O_2
    2  A    between atoms: O_2  and  C_3
    3  A    between atoms: C_5  and  C_6
    4  A    between atoms: C_6  and  N_7
    5  A    between atoms: C_8  and  C_10
    6  A    between atoms: C_10  and  C_11
    7  A    between atoms: C_11  and  C_12
    8  A    between atoms: C_12  and  C_13
    9  A    between atoms: C_13  and  C_14
   10  A    between atoms: C_14  and  C_15
   11  A    between atoms: C_15  and  C_16
   12  A    between atoms: C_16  and  C_17
   13  A    between atoms: C_17  and  C_18
   14  A    between atoms: C_18  and  C_19
   15  A    between atoms: C_19  and  C_20
   16  A    between atoms: C_25  and  O_26
                            x       y       z     vdW  Elec       q    Type
                         _______ _______ _______ _____ _____    ______ ____

>  <TORSDO>
F 15

>  <SCORE>
-5.524

>  <RMSD_LB>
5.873

>  <RMSD_UB>
11.124

$$$$
CHEMBL80692
 OpenBabel10172500513D

 28 28  0  0  0  0  0  0  0  0999 V2000
  144.9230  140.8750  151.7310 N   0  0  0  0  0  0  0  0  0  0  0  0
  145.6010  142.0640  151.6550 C   0  0  0  0  0  0  0  0  0  0  0  0
  145.4670  142.8500  150.7160 O   0  0  0  0  0  0  0  0  0  0  0  0
  145.0830  140.2760  152.4960 H   0  0  0  0  0  0  0  0  0  0  0  0
  143.9720  140.4840  150.7020 C   0  0  0  0  0  2  0  0  0  0  0  0
  140.3590  139.2700  151.1890 C   0  0  0  0  0  0  0  0  0  0  0  0
  141.4820  139.9480  150.6990 C   0  0  0  0  0  3  0  0  0  0  0  0
  142.7660  139.7330  151.2270 C   0  0  0  0  0  0  0  0  0  0  0  0
  142.8960  138.8300  152.2930 C   0  0  0  0  0  3  0  0  0  0  0  0
  141.7800  138.1500  152.8010 C   0  0  0  0  0  3  0  0  0  0  0  0
  140.5190  138.3720  152.2470 C   0  0  0  0  0  0  0  0  0  0  0  0
  138.9160  140.4300  149.6940 C   0  0  0  0  0  1  0  0  0  0  0  0
  139.0890  139.4270  150.6890 O   0  0  0  0  0  0  0  0  0  0  0  0
  139.4190  137.7180  152.7300 O   0  0  0  0  0  0  0  0  0  0  0  0
  139.5200  137.0260  153.3540 H   0  0  0  0  0  0  0  0  0  0  0  0
  146.5360  142.3230  152.8110 C   0  0  0  0  0  2  0  0  0  0  0  0
  147.6960  141.3270  152.7910 C   0  0  0  0  0  2  0  0  0  0  0  0
  148.4540  141.2860  154.1110 C   0  0  0  0  0  2  0  0  0  0  0  0
  148.3540  139.9050  154.7440 C   0  0  0  0  0  2  0  0  0  0  0  0
  148.5790  138.8220  153.7080 C   0  0  0  0  0  2  0  0  0  0  0  0
  147.7810  137.5770  154.0650 C   0  0  0  0  0  2  0  0  0  0  0  0
  146.3400  137.7220  153.6030 C   0  0  0  0  0  2  0  0  0  0  0  0
  145.7840  136.3720  153.1640 C   0  0  0  0  0  2  0  0  0  0  0  0
  146.2000  136.0670  151.7320 C   0  0  0  0  0  2  0  0  0  0  0  0
  145.5630  137.0250  150.7280 C   0  0  0  0  0  2  0  0  0  0  0  0
  146.6470  137.8330  150.0380 C   0  0  0  0  0  0  0  0  0  0  0  0
  146.9590  138.9620  150.3330 O   0  0  0  0  0  1  0  0  0  0  0  0
  147.2590  137.1670  149.0340 O   0  0  0  0  0  0  0  0  0  0  0  0
  1  4  1  0  0  0  0
  2  1  1  0  0  0  0
  2 16  1  0  0  0  0
  3  2  2  0  0  0  0
  5  8  1  0  0  0  0
  5  1  1  0  0  0  0
  6 11  1  0  0  0  0
  7  6  2  0  0  0  0
  7  8  1  0  0  0  0
  8  9  2  0  0  0  0
  9 10  1  0  0  0  0
 11 14  1  0  0  0  0
 11 10  2  0  0  0  0
 12 13  1  0  0  0  0
 13  6  1  0  0  0  0
 14 15  1  0  0  0  0
 17 16  1  0  0  0  0
 17 18  1  0  0  0  0
 18 19  1  0  0  0  0
 20 21  1  0  0  0  0
 20 19  1  0  0  0  0
 22 21  1  0  0  0  0
 23 22  1  0  0  0  0
 24 23  1  0  0  0  0
 25 24  1  0  0  0  0
 26 27  1  0  0  0  0
 26 25  1  0  0  0  0
 28 26  2  0  0  0  0
M  END
>  <MODEL>
8

>  <REMARK>
 VINA RESULT:    -5.413      2.067      3.668
 INTER + INTRA:         -12.214
 INTER:                 -10.002
 INTRA:                  -2.212
 UNBOUND:                -2.212
  Name = CHEMBL80692
  16 active torsions:
  status: ('A' for Active; 'I' for Inactive)
    1  A    between atoms: C_1  and  O_2
    2  A    between atoms: O_2  and  C_3
    3  A    between atoms: C_5  and  C_6
    4  A    between atoms: C_6  and  N_7
    5  A    between atoms: C_8  and  C_10
    6  A    between atoms: C_10  and  C_11
    7  A    between atoms: C_11  and  C_12
    8  A    between atoms: C_12  and  C_13
    9  A    between atoms: C_13  and  C_14
   10  A    between atoms: C_14  and  C_15
   11  A    between atoms: C_15  and  C_16
   12  A    between atoms: C_16  and  C_17
   13  A    between atoms: C_17  and  C_18
   14  A    between atoms: C_18  and  C_19
   15  A    between atoms: C_19  and  C_20
   16  A    between atoms: C_25  and  O_26
                            x       y       z     vdW  Elec       q    Type
                         _______ _______ _______ _____ _____    ______ ____

>  <TORSDO>
F 15

>  <SCORE>
-5.413

>  <RMSD_LB>
2.067

>  <RMSD_UB>
3.668

$$$$
CHEMBL80692
 OpenBabel10172500513D

 28 28  0  0  0  0  0  0  0  0999 V2000
  145.9760  141.0520  148.8220 N   0  0  0  0  0  0  0  0  0  0  0  0
  145.6590  141.5970  150.0400 C   0  0  0  0  0  0  0  0  0  0  0  0
  144.7190  141.1940  150.7260 O   0  0  0  0  0  0  0  0  0  0  0  0
  146.7270  141.4260  148.3060 H   0  0  0  0  0  0  0  0  0  0  0  0
  145.2230  139.9310  148.2810 C   0  0  0  0  0  2  0  0  0  0  0  0
  147.4030  136.7820  148.6050 C   0  0  0  0  0  0  0  0  0  0  0  0
  146.9340  138.0440  148.2170 C   0  0  0  0  0  3  0  0  0  0  0  0
  145.7320  138.5740  148.7190 C   0  0  0  0  0  0  0  0  0  0  0  0
  144.9870  137.7860  149.6090 C   0  0  0  0  0  3  0  0  0  0  0  0
  145.4390  136.5160  150.0000 C   0  0  0  0  0  3  0  0  0  0  0  0
  146.6440  136.0230  149.4980 C   0  0  0  0  0  0  0  0  0  0  0  0
  148.7180  136.0640  146.7560 C   0  0  0  0  0  1  0  0  0  0  0  0
  148.5820  136.2340  148.1630 O   0  0  0  0  0  0  0  0  0  0  0  0
  147.1000  134.7870  149.8660 O   0  0  0  0  0  0  0  0  0  0  0  0
  146.6010  134.2600  150.4600 H   0  0  0  0  0  0  0  0  0  0  0  0
  146.5480  142.7400  150.4610 C   0  0  0  0  0  2  0  0  0  0  0  0
  147.7990  142.2100  151.1650 C   0  0  0  0  0  2  0  0  0  0  0  0
  147.5810  141.9870  152.6550 C   0  0  0  0  0  2  0  0  0  0  0  0
  148.8060  141.3400  153.2860 C   0  0  0  0  0  2  0  0  0  0  0  0
  148.4060  140.1550  154.1430 C   0  0  0  0  0  2  0  0  0  0  0  0
  148.8060  138.8550  153.4620 C   0  0  0  0  0  2  0  0  0  0  0  0
  147.6570  138.3260  152.6170 C   0  0  0  0  0  2  0  0  0  0  0  0
  147.0130  137.1200  153.2920 C   0  0  0  0  0  2  0  0  0  0  0  0
  145.7090  137.5230  153.9680 C   0  0  0  0  0  2  0  0  0  0  0  0
  145.0430  138.7100  153.2770 C   0  0  0  0  0  2  0  0  0  0  0  0
  143.5430  138.4830  153.2090 C   0  0  0  0  0  0  0  0  0  0  0  0
  142.7090  139.2700  153.5870 O   0  0  0  0  0  1  0  0  0  0  0  0
  143.2030  137.2900  152.6730 O   0  0  0  0  0  0  0  0  0  0  0  0
  1  2  1  0  0  0  0
  2 16  1  0  0  0  0
  2  3  2  0  0  0  0
  4  1  1  0  0  0  0
  5  8  1  0  0  0  0
  5  1  1  0  0  0  0
  6 11  1  0  0  0  0
  7  6  2  0  0  0  0
  7  8  1  0  0  0  0
  8  9  2  0  0  0  0
  9 10  1  0  0  0  0
 11 14  1  0  0  0  0
 11 10  2  0  0  0  0
 12 13  1  0  0  0  0
 13  6  1  0  0  0  0
 14 15  1  0  0  0  0
 16 17  1  0  0  0  0
 17 18  1  0  0  0  0
 18 19  1  0  0  0  0
 19 20  1  0  0  0  0
 21 20  1  0  0  0  0
 22 23  1  0  0  0  0
 22 21  1  0  0  0  0
 23 24  1  0  0  0  0
 25 24  1  0  0  0  0
 26 25  1  0  0  0  0
 26 27  1  0  0  0  0
 28 26  2  0  0  0  0
M  END
>  <MODEL>
9

>  <REMARK>
 VINA RESULT:    -5.356      2.947      6.024
 INTER + INTRA:         -12.108
 INTER:                  -9.615
 INTRA:                  -2.494
 UNBOUND:                -2.212
  Name = CHEMBL80692
  16 active torsions:
  status: ('A' for Active; 'I' for Inactive)
    1  A    between atoms: C_1  and  O_2
    2  A    between atoms: O_2  and  C_3
    3  A    between atoms: C_5  and  C_6
    4  A    between atoms: C_6  and  N_7
    5  A    between atoms: C_8  and  C_10
    6  A    between atoms: C_10  and  C_11
    7  A    between atoms: C_11  and  C_12
    8  A    between atoms: C_12  and  C_13
    9  A    between atoms: C_13  and  C_14
   10  A    between atoms: C_14  and  C_15
   11  A    between atoms: C_15  and  C_16
   12  A    between atoms: C_16  and  C_17
   13  A    between atoms: C_17  and  C_18
   14  A    between atoms: C_18  and  C_19
   15  A    between atoms: C_19  and  C_20
   16  A    between atoms: C_25  and  O_26
                            x       y       z     vdW  Elec       q    Type
                         _______ _______ _______ _____ _____    ______ ____

>  <TORSDO>
F 15

>  <SCORE>
-5.356

>  <RMSD_LB>
2.947

>  <RMSD_UB>
6.024

$$$$
