CHEMBL1812102
 OpenBabel10172500243D

 27 27  0  0  0  0  0  0  0  0999 V2000
  144.6610  139.0850  154.2850 C   0  0  0  0  0  0  0  0  0  0  0  0
  144.7320  139.4800  155.4480 O   0  0  0  0  0  0  0  0  0  0  0  0
  143.9830  137.9310  154.0050 N   0  0  0  0  0  0  0  0  0  0  0  0
  143.6500  137.4160  154.7750 H   0  0  0  0  0  0  0  0  0  0  0  0
  145.2820  139.8090  153.1240 C   0  0  0  0  0  2  0  0  0  0  0  0
  146.3940  140.7470  153.4880 C   0  0  0  0  0  0  0  0  0  0  0  0
  147.4160  140.3230  154.0340 O   0  0  0  0  0  0  0  0  0  0  0  0
  146.2770  142.1900  153.0460 C   0  0  0  0  0  2  0  0  0  0  0  0
  145.6240  142.2370  151.6720 C   0  0  0  0  0  2  0  0  0  0  0  0
  146.6320  142.5650  150.5750 C   0  0  0  0  0  2  0  0  0  0  0  0
  146.4830  141.5850  149.4130 C   0  0  0  0  0  2  0  0  0  0  0  0
  146.8230  140.1610  149.8370 C   0  0  0  0  0  2  0  0  0  0  0  0
  145.8000  139.1680  149.2850 C   0  0  0  0  0  2  0  0  0  0  0  0
  144.7970  139.8720  148.3730 C   0  0  0  0  0  2  0  0  0  0  0  0
  142.9900  140.3100  150.0620 C   0  0  0  0  0  1  0  0  0  0  0  0
  143.3590  139.5690  148.7870 C   0  0  0  0  0  2  0  0  0  0  0  0
  143.7060  137.3880  152.6900 C   0  0  0  0  0  2  0  0  0  0  0  0
  142.2610  137.5350  152.2890 C   0  0  0  0  0  0  0  0  0  0  0  0
  141.8240  137.0710  151.0450 C   0  0  0  0  0  3  0  0  0  0  0  0
  140.4730  137.1410  150.6900 C   0  0  0  0  0  3  0  0  0  0  0  0
  139.5200  137.6640  151.5740 C   0  0  0  0  0  0  0  0  0  0  0  0
  139.9510  138.1270  152.8280 C   0  0  0  0  0  0  0  0  0  0  0  0
  141.3110  138.0760  153.1650 C   0  0  0  0  0  3  0  0  0  0  0  0
  138.1890  137.7720  151.2750 O   0  0  0  0  0  0  0  0  0  0  0  0
  137.8290  138.1290  149.9480 C   0  0  0  0  0  1  0  0  0  0  0  0
  139.1770  138.6980  153.8060 O   0  0  0  0  0  0  0  0  0  0  0  0
  139.5470  138.4050  155.1490 C   0  0  0  0  0  1  0  0  0  0  0  0
  1  2  2  0  0  0  0
  3  1  1  0  0  0  0
  3  4  1  0  0  0  0
  5  6  1  0  0  0  0
  5  1  1  0  0  0  0
  6  7  2  0  0  0  0
  8  6  1  0  0  0  0
  9  8  1  0  0  0  0
 10  9  1  0  0  0  0
 11 12  1  0  0  0  0
 11 10  1  0  0  0  0
 13 12  1  0  0  0  0
 14 16  1  0  0  0  0
 14 13  1  0  0  0  0
 16 15  1  0  0  0  0
 17  3  1  0  0  0  0
 18 17  1  0  0  0  0
 18 23  1  0  0  0  0
 19 18  2  0  0  0  0
 20 19  1  0  0  0  0
 20 21  2  0  0  0  0
 21 22  1  0  0  0  0
 22 23  2  0  0  0  0
 22 26  1  0  0  0  0
 24 21  1  0  0  0  0
 25 24  1  0  0  0  0
 26 27  1  0  0  0  0
M  END
>  <MODEL>
1

>  <REMARK>
 VINA RESULT:    -6.032      0.000      0.000
 INTER + INTRA:         -13.131
 INTER:                 -10.740
 INTRA:                  -2.391
 UNBOUND:                -2.162
  Name = CHEMBL1812102
  17 active torsions:
  status: ('A' for Active; 'I' for Inactive)
    1  A    between atoms: C_1  and  C_2
    2  A    between atoms: C_2  and  C_3
    3  A    between atoms: C_3  and  C_4
    4  A    between atoms: C_4  and  C_5
    5  A    between atoms: C_5  and  C_6
    6  A    between atoms: C_6  and  C_7
    7  A    between atoms: C_7  and  C_8
    8  A    between atoms: C_8  and  C_9
    9  A    between atoms: C_9  and  C_10
   10  A    between atoms: C_10  and  C_12
   11  A    between atoms: C_12  and  C_13
   12  A    between atoms: N_15  and  C_16
   13  A    between atoms: C_16  and  C_17
   14  A    between atoms: C_20  and  O_21
   15  A    between atoms: O_21  and  C_22
   16  A    between atoms: C_23  and  O_24
   17  A    between atoms: O_24  and  C_25
                            x       y       z     vdW  Elec       q    Type
                         _______ _______ _______ _____ _____    ______ ____

>  <TORSDO>
F 14

>  <SCORE>
-6.032

>  <RMSD_LB>
0.000

>  <RMSD_UB>
0.000

$$$$
CHEMBL1812102
 OpenBabel10172500243D

 27 27  0  0  0  0  0  0  0  0999 V2000
  139.4730  138.9440  154.0760 C   0  0  0  0  0  0  0  0  0  0  0  0
  140.0320  139.6270  154.9330 O   0  0  0  0  0  0  0  0  0  0  0  0
  139.7510  139.1580  152.7550 N   0  0  0  0  0  0  0  0  0  0  0  0
  140.3340  139.9220  152.5440 H   0  0  0  0  0  0  0  0  0  0  0  0
  138.4850  137.8580  154.3960 C   0  0  0  0  0  2  0  0  0  0  0  0
  137.5970  138.1420  155.5720 C   0  0  0  0  0  0  0  0  0  0  0  0
  136.8430  139.1180  155.5640 O   0  0  0  0  0  0  0  0  0  0  0  0
  137.5610  137.1260  156.6930 C   0  0  0  0  0  2  0  0  0  0  0  0
  137.0670  135.7950  156.1420 C   0  0  0  0  0  2  0  0  0  0  0  0
  135.6780  135.4440  156.6640 C   0  0  0  0  0  2  0  0  0  0  0  0
  134.8000  134.9330  155.5240 C   0  0  0  0  0  2  0  0  0  0  0  0
  134.5370  136.0240  154.4910 C   0  0  0  0  0  2  0  0  0  0  0  0
  134.4430  135.4330  153.0850 C   0  0  0  0  0  2  0  0  0  0  0  0
  135.4540  134.3020  152.9020 C   0  0  0  0  0  2  0  0  0  0  0  0
  136.5160  135.7840  151.1760 C   0  0  0  0  0  1  0  0  0  0  0  0
  136.1150  134.3610  151.5280 C   0  0  0  0  0  2  0  0  0  0  0  0
  139.2750  138.3750  151.6320 C   0  0  0  0  0  2  0  0  0  0  0  0
  140.3690  137.5790  150.9680 C   0  0  0  0  0  0  0  0  0  0  0  0
  140.1290  136.9280  149.7540 C   0  0  0  0  0  3  0  0  0  0  0  0
  141.1560  136.2430  149.0950 C   0  0  0  0  0  3  0  0  0  0  0  0
  142.4520  136.2020  149.6250 C   0  0  0  0  0  0  0  0  0  0  0  0
  142.7020  136.8580  150.8410 C   0  0  0  0  0  0  0  0  0  0  0  0
  141.6600  137.5210  151.5060 C   0  0  0  0  0  3  0  0  0  0  0  0
  143.4910  135.5350  149.0330 O   0  0  0  0  0  0  0  0  0  0  0  0
  144.3780  136.2790  148.2090 C   0  0  0  0  0  1  0  0  0  0  0  0
  143.8900  136.9010  151.5260 O   0  0  0  0  0  0  0  0  0  0  0  0
  143.8200  137.3520  152.8750 C   0  0  0  0  0  1  0  0  0  0  0  0
  1  5  1  0  0  0  0
  1  2  2  0  0  0  0
  3  1  1  0  0  0  0
  4  3  1  0  0  0  0
  5  6  1  0  0  0  0
  6  8  1  0  0  0  0
  7  6  2  0  0  0  0
  9 10  1  0  0  0  0
  9  8  1  0  0  0  0
 11 10  1  0  0  0  0
 12 11  1  0  0  0  0
 13 12  1  0  0  0  0
 14 13  1  0  0  0  0
 15 16  1  0  0  0  0
 16 14  1  0  0  0  0
 17  3  1  0  0  0  0
 18 23  1  0  0  0  0
 18 17  1  0  0  0  0
 19 18  2  0  0  0  0
 20 21  2  0  0  0  0
 20 19  1  0  0  0  0
 21 22  1  0  0  0  0
 22 23  2  0  0  0  0
 22 26  1  0  0  0  0
 24 21  1  0  0  0  0
 25 24  1  0  0  0  0
 26 27  1  0  0  0  0
M  END
>  <MODEL>
2

>  <REMARK>
 VINA RESULT:    -6.020      3.657      8.429
 INTER + INTRA:         -13.110
 INTER:                 -11.350
 INTRA:                  -1.760
 UNBOUND:                -2.162
  Name = CHEMBL1812102
  17 active torsions:
  status: ('A' for Active; 'I' for Inactive)
    1  A    between atoms: C_1  and  C_2
    2  A    between atoms: C_2  and  C_3
    3  A    between atoms: C_3  and  C_4
    4  A    between atoms: C_4  and  C_5
    5  A    between atoms: C_5  and  C_6
    6  A    between atoms: C_6  and  C_7
    7  A    between atoms: C_7  and  C_8
    8  A    between atoms: C_8  and  C_9
    9  A    between atoms: C_9  and  C_10
   10  A    between atoms: C_10  and  C_12
   11  A    between atoms: C_12  and  C_13
   12  A    between atoms: N_15  and  C_16
   13  A    between atoms: C_16  and  C_17
   14  A    between atoms: C_20  and  O_21
   15  A    between atoms: O_21  and  C_22
   16  A    between atoms: C_23  and  O_24
   17  A    between atoms: O_24  and  C_25
                            x       y       z     vdW  Elec       q    Type
                         _______ _______ _______ _____ _____    ______ ____

>  <TORSDO>
F 14

>  <SCORE>
-6.020

>  <RMSD_LB>
3.657

>  <RMSD_UB>
8.429

$$$$
CHEMBL1812102
 OpenBabel10172500243D

 27 27  0  0  0  0  0  0  0  0999 V2000
  139.5590  138.8230  154.0480 C   0  0  0  0  0  0  0  0  0  0  0  0
  140.0130  139.6240  154.8640 O   0  0  0  0  0  0  0  0  0  0  0  0
  140.0700  138.7890  152.7800 N   0  0  0  0  0  0  0  0  0  0  0  0
  140.7330  139.4790  152.5520 H   0  0  0  0  0  0  0  0  0  0  0  0
  138.4560  137.8520  154.3640 C   0  0  0  0  0  2  0  0  0  0  0  0
  137.6500  138.1900  155.5820 C   0  0  0  0  0  0  0  0  0  0  0  0
  136.8740  139.1490  155.5720 O   0  0  0  0  0  0  0  0  0  0  0  0
  137.7210  137.2460  156.7630 C   0  0  0  0  0  2  0  0  0  0  0  0
  137.2650  135.8630  156.3200 C   0  0  0  0  0  2  0  0  0  0  0  0
  135.8390  135.5630  156.7690 C   0  0  0  0  0  2  0  0  0  0  0  0
  135.0010  135.0910  155.5830 C   0  0  0  0  0  2  0  0  0  0  0  0
  135.8090  135.1020  154.2900 C   0  0  0  0  0  2  0  0  0  0  0  0
  135.1460  134.2290  153.2240 C   0  0  0  0  0  2  0  0  0  0  0  0
  135.9420  134.2630  151.9210 C   0  0  0  0  0  2  0  0  0  0  0  0
  134.0760  133.2150  150.6070 C   0  0  0  0  0  1  0  0  0  0  0  0
  135.0230  134.3990  150.7100 C   0  0  0  0  0  2  0  0  0  0  0  0
  139.7360  137.8390  151.7370 C   0  0  0  0  0  2  0  0  0  0  0  0
  140.9490  137.3050  151.0210 C   0  0  0  0  0  0  0  0  0  0  0  0
  142.2050  137.3460  151.6350 C   0  0  0  0  0  3  0  0  0  0  0  0
  143.3260  136.7920  151.0070 C   0  0  0  0  0  3  0  0  0  0  0  0
  143.2190  136.1710  149.7560 C   0  0  0  0  0  0  0  0  0  0  0  0
  141.9610  136.1210  149.1360 C   0  0  0  0  0  0  0  0  0  0  0  0
  140.8480  136.7010  149.7620 C   0  0  0  0  0  3  0  0  0  0  0  0
  144.2830  135.6260  149.0890 O   0  0  0  0  0  0  0  0  0  0  0  0
  145.4130  136.4530  148.8460 C   0  0  0  0  0  1  0  0  0  0  0  0
  141.6680  135.5880  147.9060 O   0  0  0  0  0  0  0  0  0  0  0  0
  140.4120  135.9560  147.3470 C   0  0  0  0  0  1  0  0  0  0  0  0
  1  5  1  0  0  0  0
  1  2  2  0  0  0  0
  3  1  1  0  0  0  0
  4  3  1  0  0  0  0
  5  6  1  0  0  0  0
  6  8  1  0  0  0  0
  7  6  2  0  0  0  0
  9  8  1  0  0  0  0
  9 10  1  0  0  0  0
 11 10  1  0  0  0  0
 12 11  1  0  0  0  0
 13 12  1  0  0  0  0
 14 13  1  0  0  0  0
 15 16  1  0  0  0  0
 16 14  1  0  0  0  0
 17  3  1  0  0  0  0
 18 19  1  0  0  0  0
 18 17  1  0  0  0  0
 20 19  2  0  0  0  0
 21 20  1  0  0  0  0
 22 21  2  0  0  0  0
 22 23  1  0  0  0  0
 23 18  2  0  0  0  0
 24 21  1  0  0  0  0
 25 24  1  0  0  0  0
 26 22  1  0  0  0  0
 27 26  1  0  0  0  0
M  END
>  <MODEL>
3

>  <REMARK>
 VINA RESULT:    -5.884      3.968      8.689
 INTER + INTRA:         -12.862
 INTER:                 -11.602
 INTRA:                  -1.259
 UNBOUND:                -2.162
  Name = CHEMBL1812102
  17 active torsions:
  status: ('A' for Active; 'I' for Inactive)
    1  A    between atoms: C_1  and  C_2
    2  A    between atoms: C_2  and  C_3
    3  A    between atoms: C_3  and  C_4
    4  A    between atoms: C_4  and  C_5
    5  A    between atoms: C_5  and  C_6
    6  A    between atoms: C_6  and  C_7
    7  A    between atoms: C_7  and  C_8
    8  A    between atoms: C_8  and  C_9
    9  A    between atoms: C_9  and  C_10
   10  A    between atoms: C_10  and  C_12
   11  A    between atoms: C_12  and  C_13
   12  A    between atoms: N_15  and  C_16
   13  A    between atoms: C_16  and  C_17
   14  A    between atoms: C_20  and  O_21
   15  A    between atoms: O_21  and  C_22
   16  A    between atoms: C_23  and  O_24
   17  A    between atoms: O_24  and  C_25
                            x       y       z     vdW  Elec       q    Type
                         _______ _______ _______ _____ _____    ______ ____

>  <TORSDO>
F 14

>  <SCORE>
-5.884

>  <RMSD_LB>
3.968

>  <RMSD_UB>
8.689

$$$$
CHEMBL1812102
 OpenBabel10172500243D

 27 27  0  0  0  0  0  0  0  0999 V2000
  144.3460  137.0750  149.9090 C   0  0  0  0  0  0  0  0  0  0  0  0
  145.4200  136.5370  150.1750 O   0  0  0  0  0  0  0  0  0  0  0  0
  143.1830  136.5300  150.3790 N   0  0  0  0  0  0  0  0  0  0  0  0
  143.2570  135.6670  150.8470 H   0  0  0  0  0  0  0  0  0  0  0  0
  144.2270  138.3270  149.0860 C   0  0  0  0  0  2  0  0  0  0  0  0
  144.6100  139.5890  149.8000 C   0  0  0  0  0  0  0  0  0  0  0  0
  143.7670  140.2330  150.4290 O   0  0  0  0  0  0  0  0  0  0  0  0
  146.0760  139.9650  149.8340 C   0  0  0  0  0  2  0  0  0  0  0  0
  146.2650  141.2910  149.1110 C   0  0  0  0  0  2  0  0  0  0  0  0
  146.4040  142.4560  150.0850 C   0  0  0  0  0  2  0  0  0  0  0  0
  146.9260  141.9580  151.4310 C   0  0  0  0  0  2  0  0  0  0  0  0
  145.9560  142.2850  152.5610 C   0  0  0  0  0  2  0  0  0  0  0  0
  146.6080  142.0550  153.9240 C   0  0  0  0  0  2  0  0  0  0  0  0
  148.1100  141.8190  153.7750 C   0  0  0  0  0  2  0  0  0  0  0  0
  147.3020  139.6480  154.7460 C   0  0  0  0  0  1  0  0  0  0  0  0
  148.5210  140.4640  154.3430 C   0  0  0  0  0  2  0  0  0  0  0  0
  141.8530  137.0920  150.2580 C   0  0  0  0  0  2  0  0  0  0  0  0
  141.2990  137.5720  151.5750 C   0  0  0  0  0  0  0  0  0  0  0  0
  139.9170  137.6370  151.7770 C   0  0  0  0  0  3  0  0  0  0  0  0
  139.3930  138.0160  153.0170 C   0  0  0  0  0  3  0  0  0  0  0  0
  140.2350  138.3260  154.0930 C   0  0  0  0  0  0  0  0  0  0  0  0
  141.6240  138.2580  153.9000 C   0  0  0  0  0  0  0  0  0  0  0  0
  142.1400  137.9010  152.6450 C   0  0  0  0  0  3  0  0  0  0  0  0
  139.7790  138.7170  155.3230 O   0  0  0  0  0  0  0  0  0  0  0  0
  139.4010  137.7050  156.2470 C   0  0  0  0  0  1  0  0  0  0  0  0
  142.6000  138.5550  154.8170 O   0  0  0  0  0  0  0  0  0  0  0  0
  143.6720  139.3670  154.3510 C   0  0  0  0  0  1  0  0  0  0  0  0
  1  2  2  0  0  0  0
  1  3  1  0  0  0  0
  3  4  1  0  0  0  0
  5  6  1  0  0  0  0
  5  1  1  0  0  0  0
  6  8  1  0  0  0  0
  6  7  2  0  0  0  0
  9  8  1  0  0  0  0
  9 10  1  0  0  0  0
 10 11  1  0  0  0  0
 11 12  1  0  0  0  0
 12 13  1  0  0  0  0
 14 13  1  0  0  0  0
 14 16  1  0  0  0  0
 16 15  1  0  0  0  0
 17  3  1  0  0  0  0
 17 18  1  0  0  0  0
 18 19  2  0  0  0  0
 18 23  1  0  0  0  0
 19 20  1  0  0  0  0
 20 21  2  0  0  0  0
 21 24  1  0  0  0  0
 22 21  1  0  0  0  0
 22 26  1  0  0  0  0
 23 22  2  0  0  0  0
 24 25  1  0  0  0  0
 27 26  1  0  0  0  0
M  END
>  <MODEL>
4

>  <REMARK>
 VINA RESULT:    -5.873      2.137      4.309
 INTER + INTRA:         -12.842
 INTER:                 -11.128
 INTRA:                  -1.715
 UNBOUND:                -2.162
  Name = CHEMBL1812102
  17 active torsions:
  status: ('A' for Active; 'I' for Inactive)
    1  A    between atoms: C_1  and  C_2
    2  A    between atoms: C_2  and  C_3
    3  A    between atoms: C_3  and  C_4
    4  A    between atoms: C_4  and  C_5
    5  A    between atoms: C_5  and  C_6
    6  A    between atoms: C_6  and  C_7
    7  A    between atoms: C_7  and  C_8
    8  A    between atoms: C_8  and  C_9
    9  A    between atoms: C_9  and  C_10
   10  A    between atoms: C_10  and  C_12
   11  A    between atoms: C_12  and  C_13
   12  A    between atoms: N_15  and  C_16
   13  A    between atoms: C_16  and  C_17
   14  A    between atoms: C_20  and  O_21
   15  A    between atoms: O_21  and  C_22
   16  A    between atoms: C_23  and  O_24
   17  A    between atoms: O_24  and  C_25
                            x       y       z     vdW  Elec       q    Type
                         _______ _______ _______ _____ _____    ______ ____

>  <TORSDO>
F 14

>  <SCORE>
-5.873

>  <RMSD_LB>
2.137

>  <RMSD_UB>
4.309

$$$$
CHEMBL1812102
 OpenBabel10172500243D

 27 27  0  0  0  0  0  0  0  0999 V2000
  139.7750  140.1380  150.0390 C   0  0  0  0  0  0  0  0  0  0  0  0
  139.5930  141.3060  149.6990 O   0  0  0  0  0  0  0  0  0  0  0  0
  138.9900  139.5890  151.0140 N   0  0  0  0  0  0  0  0  0  0  0  0
  138.3590  140.1930  151.4660 H   0  0  0  0  0  0  0  0  0  0  0  0
  140.8270  139.2520  149.4320 C   0  0  0  0  0  2  0  0  0  0  0  0
  142.2400  139.6730  149.7090 C   0  0  0  0  0  0  0  0  0  0  0  0
  142.9960  139.9740  148.7810 O   0  0  0  0  0  0  0  0  0  0  0  0
  142.6580  139.8440  151.1530 C   0  0  0  0  0  2  0  0  0  0  0  0
  143.3300  138.5650  151.6300 C   0  0  0  0  0  2  0  0  0  0  0  0
  144.8500  138.6940  151.6510 C   0  0  0  0  0  2  0  0  0  0  0  0
  145.3740  138.5220  153.0750 C   0  0  0  0  0  2  0  0  0  0  0  0
  146.6590  139.3140  153.2950 C   0  0  0  0  0  2  0  0  0  0  0  0
  147.1600  139.9170  151.9830 C   0  0  0  0  0  2  0  0  0  0  0  0
  147.5610  141.3790  152.1760 C   0  0  0  0  0  2  0  0  0  0  0  0
  145.4140  142.4260  151.4000 C   0  0  0  0  0  1  0  0  0  0  0  0
  146.3630  142.2370  152.5730 C   0  0  0  0  0  2  0  0  0  0  0  0
  138.9920  138.2060  151.4510 C   0  0  0  0  0  2  0  0  0  0  0  0
  138.9130  138.0660  152.9490 C   0  0  0  0  0  0  0  0  0  0  0  0
  137.8280  137.4110  153.5390 C   0  0  0  0  0  3  0  0  0  0  0  0
  137.7790  137.2150  154.9240 C   0  0  0  0  0  3  0  0  0  0  0  0
  138.8180  137.6560  155.7530 C   0  0  0  0  0  0  0  0  0  0  0  0
  139.9140  138.3100  155.1670 C   0  0  0  0  0  0  0  0  0  0  0  0
  139.9420  138.5240  153.7810 C   0  0  0  0  0  3  0  0  0  0  0  0
  138.8160  137.5060  157.1140 O   0  0  0  0  0  0  0  0  0  0  0  0
  137.5920  137.7120  157.8060 C   0  0  0  0  0  1  0  0  0  0  0  0
  141.0010  138.8390  155.8140 O   0  0  0  0  0  0  0  0  0  0  0  0
  142.1000  139.2140  154.9900 C   0  0  0  0  0  1  0  0  0  0  0  0
  1  3  1  0  0  0  0
  2  1  2  0  0  0  0
  3 17  1  0  0  0  0
  3  4  1  0  0  0  0
  5  6  1  0  0  0  0
  5  1  1  0  0  0  0
  6  8  1  0  0  0  0
  7  6  2  0  0  0  0
  8  9  1  0  0  0  0
  9 10  1  0  0  0  0
 10 11  1  0  0  0  0
 11 12  1  0  0  0  0
 13 14  1  0  0  0  0
 13 12  1  0  0  0  0
 14 16  1  0  0  0  0
 15 16  1  0  0  0  0
 17 18  1  0  0  0  0
 18 19  2  0  0  0  0
 18 23  1  0  0  0  0
 19 20  1  0  0  0  0
 20 21  2  0  0  0  0
 21 24  1  0  0  0  0
 22 21  1  0  0  0  0
 22 26  1  0  0  0  0
 23 22  2  0  0  0  0
 24 25  1  0  0  0  0
 27 26  1  0  0  0  0
M  END
>  <MODEL>
5

>  <REMARK>
 VINA RESULT:    -5.775      2.641      5.003
 INTER + INTRA:         -12.664
 INTER:                 -10.691
 INTRA:                  -1.973
 UNBOUND:                -2.162
  Name = CHEMBL1812102
  17 active torsions:
  status: ('A' for Active; 'I' for Inactive)
    1  A    between atoms: C_1  and  C_2
    2  A    between atoms: C_2  and  C_3
    3  A    between atoms: C_3  and  C_4
    4  A    between atoms: C_4  and  C_5
    5  A    between atoms: C_5  and  C_6
    6  A    between atoms: C_6  and  C_7
    7  A    between atoms: C_7  and  C_8
    8  A    between atoms: C_8  and  C_9
    9  A    between atoms: C_9  and  C_10
   10  A    between atoms: C_10  and  C_12
   11  A    between atoms: C_12  and  C_13
   12  A    between atoms: N_15  and  C_16
   13  A    between atoms: C_16  and  C_17
   14  A    between atoms: C_20  and  O_21
   15  A    between atoms: O_21  and  C_22
   16  A    between atoms: C_23  and  O_24
   17  A    between atoms: O_24  and  C_25
                            x       y       z     vdW  Elec       q    Type
                         _______ _______ _______ _____ _____    ______ ____

>  <TORSDO>
F 14

>  <SCORE>
-5.775

>  <RMSD_LB>
2.641

>  <RMSD_UB>
5.003

$$$$
CHEMBL1812102
 OpenBabel10172500243D

 27 27  0  0  0  0  0  0  0  0999 V2000
  141.0280  138.9120  154.6930 C   0  0  0  0  0  0  0  0  0  0  0  0
  141.5260  139.8130  155.3660 O   0  0  0  0  0  0  0  0  0  0  0  0
  141.3250  138.8210  153.3610 N   0  0  0  0  0  0  0  0  0  0  0  0
  141.8680  139.5470  152.9790 H   0  0  0  0  0  0  0  0  0  0  0  0
  140.0950  137.8750  155.2540 C   0  0  0  0  0  2  0  0  0  0  0  0
  138.6630  138.3070  155.3570 C   0  0  0  0  0  0  0  0  0  0  0  0
  138.2010  139.1350  154.5670 O   0  0  0  0  0  0  0  0  0  0  0  0
  137.7810  137.6020  156.3650 C   0  0  0  0  0  2  0  0  0  0  0  0
  137.4520  136.2080  155.8470 C   0  0  0  0  0  2  0  0  0  0  0  0
  136.2980  136.2290  154.8510 C   0  0  0  0  0  2  0  0  0  0  0  0
  135.2140  135.2430  155.2800 C   0  0  0  0  0  2  0  0  0  0  0  0
  133.9860  135.3380  154.3800 C   0  0  0  0  0  2  0  0  0  0  0  0
  134.3700  135.8240  152.9830 C   0  0  0  0  0  2  0  0  0  0  0  0
  134.0780  134.7510  151.9350 C   0  0  0  0  0  2  0  0  0  0  0  0
  132.7720  136.2860  150.4360 C   0  0  0  0  0  1  0  0  0  0  0  0
  132.7410  134.9970  151.2420 C   0  0  0  0  0  2  0  0  0  0  0  0
  140.9210  137.7650  152.4540 C   0  0  0  0  0  2  0  0  0  0  0  0
  139.8210  138.1890  151.5150 C   0  0  0  0  0  0  0  0  0  0  0  0
  139.9890  139.3080  150.6930 C   0  0  0  0  0  3  0  0  0  0  0  0
  139.0030  139.6710  149.7700 C   0  0  0  0  0  3  0  0  0  0  0  0
  137.8290  138.9170  149.6330 C   0  0  0  0  0  0  0  0  0  0  0  0
  137.6560  137.7890  150.4510 C   0  0  0  0  0  0  0  0  0  0  0  0
  138.6400  137.4480  151.3920 C   0  0  0  0  0  3  0  0  0  0  0  0
  136.8250  139.2330  148.7580 O   0  0  0  0  0  0  0  0  0  0  0  0
  137.1440  139.3120  147.3760 C   0  0  0  0  0  1  0  0  0  0  0  0
  136.5690  136.9540  150.4850 O   0  0  0  0  0  0  0  0  0  0  0  0
  136.4790  135.9990  149.4340 C   0  0  0  0  0  1  0  0  0  0  0  0
  1  5  1  0  0  0  0
  1  2  2  0  0  0  0
  3  1  1  0  0  0  0
  4  3  1  0  0  0  0
  5  6  1  0  0  0  0
  6  8  1  0  0  0  0
  7  6  2  0  0  0  0
  9  8  1  0  0  0  0
 10 11  1  0  0  0  0
 10  9  1  0  0  0  0
 12 11  1  0  0  0  0
 13 12  1  0  0  0  0
 14 13  1  0  0  0  0
 15 16  1  0  0  0  0
 16 14  1  0  0  0  0
 17  3  1  0  0  0  0
 18 17  1  0  0  0  0
 19 18  2  0  0  0  0
 20 19  1  0  0  0  0
 21 20  2  0  0  0  0
 21 22  1  0  0  0  0
 22 26  1  0  0  0  0
 22 23  2  0  0  0  0
 23 18  1  0  0  0  0
 24 21  1  0  0  0  0
 25 24  1  0  0  0  0
 27 26  1  0  0  0  0
M  END
>  <MODEL>
6

>  <REMARK>
 VINA RESULT:    -5.759      4.259      8.189
 INTER + INTRA:         -12.636
 INTER:                 -10.773
 INTRA:                  -1.863
 UNBOUND:                -2.162
  Name = CHEMBL1812102
  17 active torsions:
  status: ('A' for Active; 'I' for Inactive)
    1  A    between atoms: C_1  and  C_2
    2  A    between atoms: C_2  and  C_3
    3  A    between atoms: C_3  and  C_4
    4  A    between atoms: C_4  and  C_5
    5  A    between atoms: C_5  and  C_6
    6  A    between atoms: C_6  and  C_7
    7  A    between atoms: C_7  and  C_8
    8  A    between atoms: C_8  and  C_9
    9  A    between atoms: C_9  and  C_10
   10  A    between atoms: C_10  and  C_12
   11  A    between atoms: C_12  and  C_13
   12  A    between atoms: N_15  and  C_16
   13  A    between atoms: C_16  and  C_17
   14  A    between atoms: C_20  and  O_21
   15  A    between atoms: O_21  and  C_22
   16  A    between atoms: C_23  and  O_24
   17  A    between atoms: O_24  and  C_25
                            x       y       z     vdW  Elec       q    Type
                         _______ _______ _______ _____ _____    ______ ____

>  <TORSDO>
F 14

>  <SCORE>
-5.759

>  <RMSD_LB>
4.259

>  <RMSD_UB>
8.189

$$$$
CHEMBL1812102
 OpenBabel10172500243D

 27 27  0  0  0  0  0  0  0  0999 V2000
  135.2780  134.3400  151.5660 C   0  0  0  0  0  0  0  0  0  0  0  0
  136.0940  134.7070  150.7220 O   0  0  0  0  0  0  0  0  0  0  0  0
  135.3370  134.8570  152.8310 N   0  0  0  0  0  0  0  0  0  0  0  0
  136.0990  135.4470  153.0320 H   0  0  0  0  0  0  0  0  0  0  0  0
  134.1900  133.3410  151.2900 C   0  0  0  0  0  2  0  0  0  0  0  0
  133.4160  133.5860  150.0280 C   0  0  0  0  0  0  0  0  0  0  0  0
  132.5470  134.4600  149.9880 O   0  0  0  0  0  0  0  0  0  0  0  0
  133.8280  132.8240  148.7870 C   0  0  0  0  0  2  0  0  0  0  0  0
  133.4910  133.6580  147.5590 C   0  0  0  0  0  2  0  0  0  0  0  0
  134.4640  133.4010  146.4120 C   0  0  0  0  0  2  0  0  0  0  0  0
  135.7830  132.8520  146.9530 C   0  0  0  0  0  2  0  0  0  0  0  0
  136.8250  132.7160  145.8480 C   0  0  0  0  0  2  0  0  0  0  0  0
  136.5970  131.4400  145.0370 C   0  0  0  0  0  2  0  0  0  0  0  0
  136.4120  131.7650  143.5550 C   0  0  0  0  0  2  0  0  0  0  0  0
  137.6450  132.8060  141.6310 C   0  0  0  0  0  1  0  0  0  0  0  0
  137.3290  132.9020  143.1150 C   0  0  0  0  0  2  0  0  0  0  0  0
  134.3930  134.6250  153.9060 C   0  0  0  0  0  2  0  0  0  0  0  0
  134.9230  135.0500  155.2510 C   0  0  0  0  0  0  0  0  0  0  0  0
  134.3870  134.5070  156.4230 C   0  0  0  0  0  3  0  0  0  0  0  0
  134.9160  134.8430  157.6740 C   0  0  0  0  0  3  0  0  0  0  0  0
  136.0030  135.7200  157.7860 C   0  0  0  0  0  0  0  0  0  0  0  0
  136.5500  136.2660  156.6130 C   0  0  0  0  0  0  0  0  0  0  0  0
  135.9970  135.9420  155.3660 C   0  0  0  0  0  3  0  0  0  0  0  0
  136.5520  136.0960  158.9820 O   0  0  0  0  0  0  0  0  0  0  0  0
  136.4660  135.1870  160.0710 C   0  0  0  0  0  1  0  0  0  0  0  0
  137.5860  137.1610  156.5250 O   0  0  0  0  0  0  0  0  0  0  0  0
  138.0370  137.4700  155.2100 C   0  0  0  0  0  1  0  0  0  0  0  0
  1  3  1  0  0  0  0
  2  1  2  0  0  0  0
  3  4  1  0  0  0  0
  3 17  1  0  0  0  0
  5  1  1  0  0  0  0
  6  5  1  0  0  0  0
  7  6  2  0  0  0  0
  8  6  1  0  0  0  0
  9  8  1  0  0  0  0
 10 11  1  0  0  0  0
 10  9  1  0  0  0  0
 12 11  1  0  0  0  0
 13 12  1  0  0  0  0
 14 13  1  0  0  0  0
 15 16  1  0  0  0  0
 16 14  1  0  0  0  0
 17 18  1  0  0  0  0
 18 23  2  0  0  0  0
 18 19  1  0  0  0  0
 19 20  2  0  0  0  0
 20 21  1  0  0  0  0
 21 24  1  0  0  0  0
 22 21  2  0  0  0  0
 23 22  1  0  0  0  0
 24 25  1  0  0  0  0
 26 22  1  0  0  0  0
 27 26  1  0  0  0  0
M  END
>  <MODEL>
7

>  <REMARK>
 VINA RESULT:    -5.618      7.696     11.363
 INTER + INTRA:         -12.378
 INTER:                 -11.351
 INTRA:                  -1.026
 UNBOUND:                -2.162
  Name = CHEMBL1812102
  17 active torsions:
  status: ('A' for Active; 'I' for Inactive)
    1  A    between atoms: C_1  and  C_2
    2  A    between atoms: C_2  and  C_3
    3  A    between atoms: C_3  and  C_4
    4  A    between atoms: C_4  and  C_5
    5  A    between atoms: C_5  and  C_6
    6  A    between atoms: C_6  and  C_7
    7  A    between atoms: C_7  and  C_8
    8  A    between atoms: C_8  and  C_9
    9  A    between atoms: C_9  and  C_10
   10  A    between atoms: C_10  and  C_12
   11  A    between atoms: C_12  and  C_13
   12  A    between atoms: N_15  and  C_16
   13  A    between atoms: C_16  and  C_17
   14  A    between atoms: C_20  and  O_21
   15  A    between atoms: O_21  and  C_22
   16  A    between atoms: C_23  and  O_24
   17  A    between atoms: O_24  and  C_25
                            x       y       z     vdW  Elec       q    Type
                         _______ _______ _______ _____ _____    ______ ____

>  <TORSDO>
F 14

>  <SCORE>
-5.618

>  <RMSD_LB>
7.696

>  <RMSD_UB>
11.363

$$$$
CHEMBL1812102
 OpenBabel10172500243D

 27 27  0  0  0  0  0  0  0  0999 V2000
  139.6680  139.1430  151.5510 C   0  0  0  0  0  0  0  0  0  0  0  0
  139.8680  140.0740  150.7730 O   0  0  0  0  0  0  0  0  0  0  0  0
  138.4030  138.6430  151.6940 N   0  0  0  0  0  0  0  0  0  0  0  0
  137.6840  139.1180  151.2200 H   0  0  0  0  0  0  0  0  0  0  0  0
  140.7510  138.4990  152.3720 C   0  0  0  0  0  2  0  0  0  0  0  0
  141.5530  137.4580  151.6490 C   0  0  0  0  0  0  0  0  0  0  0  0
  141.0470  136.8020  150.7350 O   0  0  0  0  0  0  0  0  0  0  0  0
  143.0240  137.3390  151.9850 C   0  0  0  0  0  2  0  0  0  0  0  0
  143.2040  137.5010  153.4880 C   0  0  0  0  0  2  0  0  0  0  0  0
  144.6510  137.8120  153.8570 C   0  0  0  0  0  2  0  0  0  0  0  0
  145.2870  138.7020  152.7910 C   0  0  0  0  0  2  0  0  0  0  0  0
  145.2660  140.1700  153.2050 C   0  0  0  0  0  2  0  0  0  0  0  0
  145.1800  141.0810  151.9800 C   0  0  0  0  0  2  0  0  0  0  0  0
  145.9800  142.3640  152.2000 C   0  0  0  0  0  2  0  0  0  0  0  0
  148.3330  141.9870  151.4070 C   0  0  0  0  0  1  0  0  0  0  0  0
  147.4160  142.0600  152.6170 C   0  0  0  0  0  2  0  0  0  0  0  0
  138.0130  137.4840  152.4730 C   0  0  0  0  0  2  0  0  0  0  0  0
  137.0080  136.6140  151.7640 C   0  0  0  0  0  0  0  0  0  0  0  0
  137.0130  136.5260  150.3680 C   0  0  0  0  0  3  0  0  0  0  0  0
  136.1300  135.6690  149.7030 C   0  0  0  0  0  3  0  0  0  0  0  0
  135.2290  134.8670  150.4140 C   0  0  0  0  0  0  0  0  0  0  0  0
  135.2220  134.9450  151.8170 C   0  0  0  0  0  0  0  0  0  0  0  0
  136.0940  135.8260  152.4730 C   0  0  0  0  0  3  0  0  0  0  0  0
  134.3320  134.0220  149.8170 O   0  0  0  0  0  0  0  0  0  0  0  0
  133.9120  134.3230  148.4930 C   0  0  0  0  0  1  0  0  0  0  0  0
  134.3950  134.2670  152.6760 O   0  0  0  0  0  0  0  0  0  0  0  0
  133.7450  135.0520  153.6700 C   0  0  0  0  0  1  0  0  0  0  0  0
  1  3  1  0  0  0  0
  1  5  1  0  0  0  0
  2  1  2  0  0  0  0
  3 17  1  0  0  0  0
  4  3  1  0  0  0  0
  6  8  1  0  0  0  0
  6  5  1  0  0  0  0
  7  6  2  0  0  0  0
  8  9  1  0  0  0  0
  9 10  1  0  0  0  0
 11 12  1  0  0  0  0
 11 10  1  0  0  0  0
 13 14  1  0  0  0  0
 13 12  1  0  0  0  0
 14 16  1  0  0  0  0
 15 16  1  0  0  0  0
 18 17  1  0  0  0  0
 18 23  1  0  0  0  0
 19 18  2  0  0  0  0
 20 19  1  0  0  0  0
 20 21  2  0  0  0  0
 21 22  1  0  0  0  0
 22 23  2  0  0  0  0
 22 26  1  0  0  0  0
 24 21  1  0  0  0  0
 25 24  1  0  0  0  0
 26 27  1  0  0  0  0
M  END
>  <MODEL>
8

>  <REMARK>
 VINA RESULT:    -5.429      3.265      5.675
 INTER + INTRA:         -12.035
 INTER:                 -10.728
 INTRA:                  -1.307
 UNBOUND:                -2.162
  Name = CHEMBL1812102
  17 active torsions:
  status: ('A' for Active; 'I' for Inactive)
    1  A    between atoms: C_1  and  C_2
    2  A    between atoms: C_2  and  C_3
    3  A    between atoms: C_3  and  C_4
    4  A    between atoms: C_4  and  C_5
    5  A    between atoms: C_5  and  C_6
    6  A    between atoms: C_6  and  C_7
    7  A    between atoms: C_7  and  C_8
    8  A    between atoms: C_8  and  C_9
    9  A    between atoms: C_9  and  C_10
   10  A    between atoms: C_10  and  C_12
   11  A    between atoms: C_12  and  C_13
   12  A    between atoms: N_15  and  C_16
   13  A    between atoms: C_16  and  C_17
   14  A    between atoms: C_20  and  O_21
   15  A    between atoms: O_21  and  C_22
   16  A    between atoms: C_23  and  O_24
   17  A    between atoms: O_24  and  C_25
                            x       y       z     vdW  Elec       q    Type
                         _______ _______ _______ _____ _____    ______ ____

>  <TORSDO>
F 14

>  <SCORE>
-5.429

>  <RMSD_LB>
3.265

>  <RMSD_UB>
5.675

$$$$
CHEMBL1812102
 OpenBabel10172500243D

 27 27  0  0  0  0  0  0  0  0999 V2000
  132.7460  134.2990  149.5430 C   0  0  0  0  0  0  0  0  0  0  0  0
  132.4100  133.7100  150.5690 O   0  0  0  0  0  0  0  0  0  0  0  0
  133.0690  135.6260  149.6020 N   0  0  0  0  0  0  0  0  0  0  0  0
  132.9330  136.0770  150.4660 H   0  0  0  0  0  0  0  0  0  0  0  0
  132.8320  133.6360  148.1970 C   0  0  0  0  0  2  0  0  0  0  0  0
  134.0720  132.8210  147.9740 C   0  0  0  0  0  0  0  0  0  0  0  0
  134.2110  131.7300  148.5330 O   0  0  0  0  0  0  0  0  0  0  0  0
  135.0690  133.3160  146.9490 C   0  0  0  0  0  2  0  0  0  0  0  0
  134.3200  133.7590  145.7010 C   0  0  0  0  0  2  0  0  0  0  0  0
  134.9520  134.9930  145.0650 C   0  0  0  0  0  2  0  0  0  0  0  0
  136.4420  134.7560  144.8230 C   0  0  0  0  0  2  0  0  0  0  0  0
  136.6880  134.0760  143.4810 C   0  0  0  0  0  2  0  0  0  0  0  0
  137.2790  132.6800  143.6770 C   0  0  0  0  0  2  0  0  0  0  0  0
  137.4820  131.9820  142.3330 C   0  0  0  0  0  2  0  0  0  0  0  0
  138.8170  132.9390  140.4330 C   0  0  0  0  0  1  0  0  0  0  0  0
  137.4950  132.9830  141.1820 C   0  0  0  0  0  2  0  0  0  0  0  0
  133.5930  136.4380  148.5210 C   0  0  0  0  0  2  0  0  0  0  0  0
  135.0800  136.6590  148.6220 C   0  0  0  0  0  0  0  0  0  0  0  0
  135.8350  135.9520  149.5630 C   0  0  0  0  0  3  0  0  0  0  0  0
  137.2250  136.0990  149.6200 C   0  0  0  0  0  3  0  0  0  0  0  0
  137.8990  136.9460  148.7310 C   0  0  0  0  0  0  0  0  0  0  0  0
  137.1480  137.6550  147.7790 C   0  0  0  0  0  0  0  0  0  0  0  0
  135.7520  137.5200  147.7460 C   0  0  0  0  0  3  0  0  0  0  0  0
  139.2540  137.1400  148.7500 O   0  0  0  0  0  0  0  0  0  0  0  0
  139.9280  137.0150  149.9950 C   0  0  0  0  0  1  0  0  0  0  0  0
  137.6230  138.5500  146.8540 O   0  0  0  0  0  0  0  0  0  0  0  0
  138.0760  137.9970  145.6230 C   0  0  0  0  0  1  0  0  0  0  0  0
  1  3  1  0  0  0  0
  1  2  2  0  0  0  0
  3  4  1  0  0  0  0
  5  1  1  0  0  0  0
  6  5  1  0  0  0  0
  6  7  2  0  0  0  0
  8  6  1  0  0  0  0
  9  8  1  0  0  0  0
 10  9  1  0  0  0  0
 11 10  1  0  0  0  0
 12 13  1  0  0  0  0
 12 11  1  0  0  0  0
 14 13  1  0  0  0  0
 15 16  1  0  0  0  0
 16 14  1  0  0  0  0
 17 18  1  0  0  0  0
 17  3  1  0  0  0  0
 18 19  1  0  0  0  0
 19 20  2  0  0  0  0
 21 24  1  0  0  0  0
 21 20  1  0  0  0  0
 22 21  2  0  0  0  0
 23 22  1  0  0  0  0
 23 18  2  0  0  0  0
 24 25  1  0  0  0  0
 26 22  1  0  0  0  0
 27 26  1  0  0  0  0
M  END
>  <MODEL>
9

>  <REMARK>
 VINA RESULT:    -5.377      6.563     11.486
 INTER + INTRA:         -11.941
 INTER:                  -9.778
 INTRA:                  -2.162
 UNBOUND:                -2.162
  Name = CHEMBL1812102
  17 active torsions:
  status: ('A' for Active; 'I' for Inactive)
    1  A    between atoms: C_1  and  C_2
    2  A    between atoms: C_2  and  C_3
    3  A    between atoms: C_3  and  C_4
    4  A    between atoms: C_4  and  C_5
    5  A    between atoms: C_5  and  C_6
    6  A    between atoms: C_6  and  C_7
    7  A    between atoms: C_7  and  C_8
    8  A    between atoms: C_8  and  C_9
    9  A    between atoms: C_9  and  C_10
   10  A    between atoms: C_10  and  C_12
   11  A    between atoms: C_12  and  C_13
   12  A    between atoms: N_15  and  C_16
   13  A    between atoms: C_16  and  C_17
   14  A    between atoms: C_20  and  O_21
   15  A    between atoms: O_21  and  C_22
   16  A    between atoms: C_23  and  O_24
   17  A    between atoms: O_24  and  C_25
                            x       y       z     vdW  Elec       q    Type
                         _______ _______ _______ _____ _____    ______ ____

>  <TORSDO>
F 14

>  <SCORE>
-5.377

>  <RMSD_LB>
6.563

>  <RMSD_UB>
11.486

$$$$
