CHEMBL327228
 OpenBabel10172500063D

 26 27  0  0  0  0  0  0  0  0999 V2000
  144.3440  140.5930  150.4820 C   0  0  0  0  0  0  0  0  0  0  0  0
  143.1440  140.3810  150.6250 O   0  0  0  0  0  0  0  0  0  0  0  0
  145.1600  139.7960  149.7010 N   0  0  0  0  0  0  0  0  0  0  0  0
  146.1180  140.0070  149.6320 H   0  0  0  0  0  0  0  0  0  0  0  0
  145.0420  141.7830  151.1180 C   0  0  0  0  0  2  0  0  0  0  0  0
  146.7330  140.1520  154.1660 C   0  0  0  0  0  0  0  0  0  0  0  0
  145.8020  140.4360  153.1600 C   0  0  0  0  0  3  0  0  0  0  0  0
  146.0280  141.4520  152.2190 C   0  0  0  0  0  0  0  0  0  0  0  0
  147.2210  142.1860  152.3010 C   0  0  0  0  0  3  0  0  0  0  0  0
  148.1610  141.9150  153.2990 C   0  0  0  0  0  3  0  0  0  0  0  0
  147.9110  140.9050  154.2260 C   0  0  0  0  0  0  0  0  0  0  0  0
  146.1660  137.8910  154.6380 C   0  0  0  0  0  1  0  0  0  0  0  0
  146.5820  139.1670  155.1100 O   0  0  0  0  0  0  0  0  0  0  0  0
  148.8270  140.6420  155.2100 O   0  0  0  0  0  0  0  0  0  0  0  0
  148.8770  141.1970  155.9630 H   0  0  0  0  0  0  0  0  0  0  0  0
  144.6290  138.6590  148.9810 C   0  0  0  0  0  2  0  0  0  0  0  0
  144.9370  137.3240  149.6560 C   0  0  0  0  0  2  0  0  0  0  0  0
  143.7120  136.4020  149.7620 C   0  0  0  0  0  2  0  0  0  0  0  0
  142.6490  136.8860  150.7260 C   0  0  0  0  0  0  0  0  0  0  0  0
  141.3080  136.9180  150.3260 C   0  0  0  0  0  3  0  0  0  0  0  0
  140.3190  137.3960  151.1910 C   0  0  0  0  0  3  0  0  0  0  0  0
  140.6390  137.8330  152.4860 C   0  0  0  0  0  0  0  0  0  0  0  0
  139.5500  138.3660  153.3720 C   0  0  0  0  0  1  0  0  0  0  0  0
  141.9740  137.7620  152.9170 C   0  0  0  0  0  0  0  0  0  0  0  0
  142.4350  138.1840  154.2830 C   0  0  0  0  0  1  0  0  0  0  0  0
  142.9550  137.2780  152.0330 C   0  0  0  0  0  3  0  0  0  0  0  0
  1  2  2  0  0  0  0
  1  5  1  0  0  0  0
  3  1  1  0  0  0  0
  4  3  1  0  0  0  0
  5  8  1  0  0  0  0
  6 11  1  0  0  0  0
  6 13  1  0  0  0  0
  7  6  2  0  0  0  0
  8  9  2  0  0  0  0
  8  7  1  0  0  0  0
  9 10  1  0  0  0  0
 10 11  2  0  0  0  0
 11 14  1  0  0  0  0
 12 13  1  0  0  0  0
 14 15  1  0  0  0  0
 16 17  1  0  0  0  0
 16  3  1  0  0  0  0
 17 18  1  0  0  0  0
 18 19  1  0  0  0  0
 19 26  1  0  0  0  0
 20 19  2  0  0  0  0
 20 21  1  0  0  0  0
 21 22  2  0  0  0  0
 22 24  1  0  0  0  0
 22 23  1  0  0  0  0
 24 25  1  0  0  0  0
 26 24  2  0  0  0  0
M  END
>  <MODEL>
1

>  <REMARK>
 VINA RESULT:    -7.152      0.000      0.000
 INTER + INTRA:         -11.926
 INTER:                 -10.607
 INTRA:                  -1.319
 UNBOUND:                -1.639
  Name = CHEMBL327228
  11 active torsions:
  status: ('A' for Active; 'I' for Inactive)
    1  A    between atoms: C_1  and  O_2
    2  A    between atoms: O_2  and  C_3
    3  A    between atoms: C_5  and  C_6
    4  A    between atoms: C_6  and  C_7
    5  A    between atoms: N_9  and  C_10
    6  A    between atoms: C_10  and  C_11
    7  A    between atoms: C_11  and  C_12
    8  A    between atoms: C_12  and  C_13
    9  A    between atoms: C_16  and  C_17
   10  A    between atoms: C_18  and  C_19
   11  A    between atoms: C_23  and  O_24
                            x       y       z     vdW  Elec       q    Type
                         _______ _______ _______ _____ _____    ______ ____

>  <TORSDO>
F 8

>  <SCORE>
-7.152

>  <RMSD_LB>
0.000

>  <RMSD_UB>
0.000

$$$$
CHEMBL327228
 OpenBabel10172500063D

 26 27  0  0  0  0  0  0  0  0999 V2000
  133.0980  134.5460  151.1770 C   0  0  0  0  0  0  0  0  0  0  0  0
  133.1020  135.7730  151.1890 O   0  0  0  0  0  0  0  0  0  0  0  0
  133.5900  133.7840  152.2200 N   0  0  0  0  0  0  0  0  0  0  0  0
  133.5740  132.8030  152.1520 H   0  0  0  0  0  0  0  0  0  0  0  0
  132.5120  133.7430  150.0290 C   0  0  0  0  0  2  0  0  0  0  0  0
  134.7300  133.1080  146.9480 C   0  0  0  0  0  0  0  0  0  0  0  0
  134.0980  132.9360  148.1850 C   0  0  0  0  0  3  0  0  0  0  0  0
  133.2130  133.8990  148.6960 C   0  0  0  0  0  0  0  0  0  0  0  0
  132.9680  135.0510  147.9340 C   0  0  0  0  0  3  0  0  0  0  0  0
  133.5910  135.2380  146.6960 C   0  0  0  0  0  3  0  0  0  0  0  0
  134.4690  134.2690  146.2130 C   0  0  0  0  0  0  0  0  0  0  0  0
  136.9810  132.4190  146.6150 C   0  0  0  0  0  1  0  0  0  0  0  0
  135.5940  132.2030  146.3850 O   0  0  0  0  0  0  0  0  0  0  0  0
  135.0870  134.4530  145.0050 O   0  0  0  0  0  0  0  0  0  0  0  0
  135.6940  135.1570  144.8920 H   0  0  0  0  0  0  0  0  0  0  0  0
  134.1270  134.4040  153.4130 C   0  0  0  0  0  2  0  0  0  0  0  0
  135.6520  134.4840  153.4130 C   0  0  0  0  0  2  0  0  0  0  0  0
  136.1820  135.9270  153.4380 C   0  0  0  0  0  2  0  0  0  0  0  0
  136.6130  136.4080  154.8070 C   0  0  0  0  0  0  0  0  0  0  0  0
  137.3190  137.6110  154.9330 C   0  0  0  0  0  3  0  0  0  0  0  0
  137.7560  138.0510  156.1850 C   0  0  0  0  0  3  0  0  0  0  0  0
  137.4810  137.3160  157.3490 C   0  0  0  0  0  0  0  0  0  0  0  0
  137.9940  137.8110  158.6700 C   0  0  0  0  0  1  0  0  0  0  0  0
  136.7320  136.1320  157.2430 C   0  0  0  0  0  0  0  0  0  0  0  0
  136.3610  135.2700  158.4160 C   0  0  0  0  0  1  0  0  0  0  0  0
  136.3010  135.7050  155.9750 C   0  0  0  0  0  3  0  0  0  0  0  0
  1  2  2  0  0  0  0
  1  3  1  0  0  0  0
  3 16  1  0  0  0  0
  4  3  1  0  0  0  0
  5  1  1  0  0  0  0
  6  7  1  0  0  0  0
  7  8  2  0  0  0  0
  8  5  1  0  0  0  0
  9  8  1  0  0  0  0
 10  9  2  0  0  0  0
 11 10  1  0  0  0  0
 11  6  2  0  0  0  0
 13 12  1  0  0  0  0
 13  6  1  0  0  0  0
 14 11  1  0  0  0  0
 15 14  1  0  0  0  0
 16 17  1  0  0  0  0
 17 18  1  0  0  0  0
 18 19  1  0  0  0  0
 19 20  2  0  0  0  0
 19 26  1  0  0  0  0
 20 21  1  0  0  0  0
 21 22  2  0  0  0  0
 22 23  1  0  0  0  0
 24 22  1  0  0  0  0
 24 25  1  0  0  0  0
 26 24  2  0  0  0  0
M  END
>  <MODEL>
2

>  <REMARK>
 VINA RESULT:    -6.762      9.439     12.397
 INTER + INTRA:         -11.365
 INTER:                 -10.936
 INTRA:                  -0.429
 UNBOUND:                -1.639
  Name = CHEMBL327228
  11 active torsions:
  status: ('A' for Active; 'I' for Inactive)
    1  A    between atoms: C_1  and  O_2
    2  A    between atoms: O_2  and  C_3
    3  A    between atoms: C_5  and  C_6
    4  A    between atoms: C_6  and  C_7
    5  A    between atoms: N_9  and  C_10
    6  A    between atoms: C_10  and  C_11
    7  A    between atoms: C_11  and  C_12
    8  A    between atoms: C_12  and  C_13
    9  A    between atoms: C_16  and  C_17
   10  A    between atoms: C_18  and  C_19
   11  A    between atoms: C_23  and  O_24
                            x       y       z     vdW  Elec       q    Type
                         _______ _______ _______ _____ _____    ______ ____

>  <TORSDO>
F 8

>  <SCORE>
-6.762

>  <RMSD_LB>
9.439

>  <RMSD_UB>
12.397

$$$$
CHEMBL327228
 OpenBabel10172500063D

 26 27  0  0  0  0  0  0  0  0999 V2000
  145.3480  137.7880  149.7550 C   0  0  0  0  0  0  0  0  0  0  0  0
  146.5000  137.4310  149.5280 O   0  0  0  0  0  0  0  0  0  0  0  0
  144.7230  138.7980  149.0490 N   0  0  0  0  0  0  0  0  0  0  0  0
  143.8020  139.0530  149.2840 H   0  0  0  0  0  0  0  0  0  0  0  0
  144.4830  137.1240  150.8120 C   0  0  0  0  0  2  0  0  0  0  0  0
  143.1990  138.8950  153.9780 C   0  0  0  0  0  0  0  0  0  0  0  0
  143.2210  138.2460  152.7390 C   0  0  0  0  0  3  0  0  0  0  0  0
  144.4250  137.8300  152.1500 C   0  0  0  0  0  0  0  0  0  0  0  0
  145.6240  138.0760  152.8370 C   0  0  0  0  0  3  0  0  0  0  0  0
  145.6200  138.7230  154.0760 C   0  0  0  0  0  3  0  0  0  0  0  0
  144.4110  139.1310  154.6370 C   0  0  0  0  0  0  0  0  0  0  0  0
  141.2980  138.3190  155.2860 C   0  0  0  0  0  1  0  0  0  0  0  0
  142.0590  139.3160  154.6160 O   0  0  0  0  0  0  0  0  0  0  0  0
  144.4050  139.7720  155.8470 O   0  0  0  0  0  0  0  0  0  0  0  0
  145.1180  140.3300  156.0850 H   0  0  0  0  0  0  0  0  0  0  0  0
  145.3970  139.4880  147.9700 C   0  0  0  0  0  2  0  0  0  0  0  0
  146.3710  140.5580  148.4570 C   0  0  0  0  0  2  0  0  0  0  0  0
  145.7490  141.5200  149.4820 C   0  0  0  0  0  2  0  0  0  0  0  0
  146.5260  141.6400  150.7750 C   0  0  0  0  0  0  0  0  0  0  0  0
  147.9010  141.3770  150.7900 C   0  0  0  0  0  3  0  0  0  0  0  0
  148.6260  141.4460  151.9840 C   0  0  0  0  0  3  0  0  0  0  0  0
  148.0030  141.8030  153.1900 C   0  0  0  0  0  0  0  0  0  0  0  0
  148.8140  141.8380  154.4530 C   0  0  0  0  0  1  0  0  0  0  0  0
  146.6330  142.1160  153.1810 C   0  0  0  0  0  0  0  0  0  0  0  0
  145.8620  142.5260  154.4020 C   0  0  0  0  0  1  0  0  0  0  0  0
  145.9210  142.0400  151.9710 C   0  0  0  0  0  3  0  0  0  0  0  0
  1  5  1  0  0  0  0
  2  1  2  0  0  0  0
  3  4  1  0  0  0  0
  3  1  1  0  0  0  0
  5  8  1  0  0  0  0
  6 13  1  0  0  0  0
  6 11  1  0  0  0  0
  7  6  2  0  0  0  0
  8  7  1  0  0  0  0
  8  9  2  0  0  0  0
  9 10  1  0  0  0  0
 10 11  2  0  0  0  0
 11 14  1  0  0  0  0
 13 12  1  0  0  0  0
 14 15  1  0  0  0  0
 16 17  1  0  0  0  0
 16  3  1  0  0  0  0
 17 18  1  0  0  0  0
 18 19  1  0  0  0  0
 19 20  2  0  0  0  0
 19 26  1  0  0  0  0
 20 21  1  0  0  0  0
 21 22  2  0  0  0  0
 22 23  1  0  0  0  0
 24 22  1  0  0  0  0
 24 25  1  0  0  0  0
 26 24  2  0  0  0  0
M  END
>  <MODEL>
3

>  <REMARK>
 VINA RESULT:    -6.639      2.151      5.478
 INTER + INTRA:         -11.188
 INTER:                  -9.392
 INTRA:                  -1.796
 UNBOUND:                -1.639
  Name = CHEMBL327228
  11 active torsions:
  status: ('A' for Active; 'I' for Inactive)
    1  A    between atoms: C_1  and  O_2
    2  A    between atoms: O_2  and  C_3
    3  A    between atoms: C_5  and  C_6
    4  A    between atoms: C_6  and  C_7
    5  A    between atoms: N_9  and  C_10
    6  A    between atoms: C_10  and  C_11
    7  A    between atoms: C_11  and  C_12
    8  A    between atoms: C_12  and  C_13
    9  A    between atoms: C_16  and  C_17
   10  A    between atoms: C_18  and  C_19
   11  A    between atoms: C_23  and  O_24
                            x       y       z     vdW  Elec       q    Type
                         _______ _______ _______ _____ _____    ______ ____

>  <TORSDO>
F 8

>  <SCORE>
-6.639

>  <RMSD_LB>
2.151

>  <RMSD_UB>
5.478

$$$$
CHEMBL327228
 OpenBabel10172500063D

 26 27  0  0  0  0  0  0  0  0999 V2000
  132.8460  134.3910  150.8280 C   0  0  0  0  0  0  0  0  0  0  0  0
  132.4870  135.5510  151.0000 O   0  0  0  0  0  0  0  0  0  0  0  0
  133.5920  133.6900  151.7560 N   0  0  0  0  0  0  0  0  0  0  0  0
  133.8650  132.7660  151.5590 H   0  0  0  0  0  0  0  0  0  0  0  0
  132.4700  133.5970  149.5890 C   0  0  0  0  0  2  0  0  0  0  0  0
  134.5850  133.3520  146.3830 C   0  0  0  0  0  0  0  0  0  0  0  0
  133.8940  132.9940  147.5460 C   0  0  0  0  0  3  0  0  0  0  0  0
  133.2280  133.9520  148.3270 C   0  0  0  0  0  0  0  0  0  0  0  0
  133.2650  135.2920  147.9160 C   0  0  0  0  0  3  0  0  0  0  0  0
  133.9520  135.6670  146.7570 C   0  0  0  0  0  3  0  0  0  0  0  0
  134.6090  134.6980  146.0010 C   0  0  0  0  0  0  0  0  0  0  0  0
  136.2310  131.6470  146.1840 C   0  0  0  0  0  1  0  0  0  0  0  0
  135.2460  132.4680  145.5680 O   0  0  0  0  0  0  0  0  0  0  0  0
  135.2890  135.0630  144.8690 O   0  0  0  0  0  0  0  0  0  0  0  0
  135.2490  135.9480  144.5650 H   0  0  0  0  0  0  0  0  0  0  0  0
  133.9790  134.2910  153.0140 C   0  0  0  0  0  2  0  0  0  0  0  0
  135.4450  134.7170  153.0510 C   0  0  0  0  0  2  0  0  0  0  0  0
  135.6860  136.1090  152.4470 C   0  0  0  0  0  2  0  0  0  0  0  0
  136.7550  136.1460  151.3750 C   0  0  0  0  0  0  0  0  0  0  0  0
  137.7910  137.0860  151.4560 C   0  0  0  0  0  3  0  0  0  0  0  0
  138.7640  137.1570  150.4550 C   0  0  0  0  0  3  0  0  0  0  0  0
  138.7450  136.2790  149.3600 C   0  0  0  0  0  0  0  0  0  0  0  0
  139.7950  136.4100  148.2940 C   0  0  0  0  0  1  0  0  0  0  0  0
  137.7400  135.3000  149.2920 C   0  0  0  0  0  0  0  0  0  0  0  0
  137.6240  134.2970  148.1810 C   0  0  0  0  0  1  0  0  0  0  0  0
  136.7680  135.2440  150.3070 C   0  0  0  0  0  3  0  0  0  0  0  0
  1  2  2  0  0  0  0
  1  3  1  0  0  0  0
  3 16  1  0  0  0  0
  4  3  1  0  0  0  0
  5  1  1  0  0  0  0
  6  7  1  0  0  0  0
  7  8  2  0  0  0  0
  8  5  1  0  0  0  0
  9  8  1  0  0  0  0
 10  9  2  0  0  0  0
 11  6  2  0  0  0  0
 11 10  1  0  0  0  0
 13 12  1  0  0  0  0
 13  6  1  0  0  0  0
 14 11  1  0  0  0  0
 15 14  1  0  0  0  0
 16 17  1  0  0  0  0
 18 17  1  0  0  0  0
 19 20  1  0  0  0  0
 19 18  1  0  0  0  0
 21 20  2  0  0  0  0
 22 21  1  0  0  0  0
 23 22  1  0  0  0  0
 24 22  2  0  0  0  0
 24 26  1  0  0  0  0
 25 24  1  0  0  0  0
 26 19  2  0  0  0  0
M  END
>  <MODEL>
4

>  <REMARK>
 VINA RESULT:    -6.592      8.553     12.310
 INTER + INTRA:         -11.121
 INTER:                  -9.683
 INTRA:                  -1.438
 UNBOUND:                -1.639
  Name = CHEMBL327228
  11 active torsions:
  status: ('A' for Active; 'I' for Inactive)
    1  A    between atoms: C_1  and  O_2
    2  A    between atoms: O_2  and  C_3
    3  A    between atoms: C_5  and  C_6
    4  A    between atoms: C_6  and  C_7
    5  A    between atoms: N_9  and  C_10
    6  A    between atoms: C_10  and  C_11
    7  A    between atoms: C_11  and  C_12
    8  A    between atoms: C_12  and  C_13
    9  A    between atoms: C_16  and  C_17
   10  A    between atoms: C_18  and  C_19
   11  A    between atoms: C_23  and  O_24
                            x       y       z     vdW  Elec       q    Type
                         _______ _______ _______ _____ _____    ______ ____

>  <TORSDO>
F 8

>  <SCORE>
-6.592

>  <RMSD_LB>
8.553

>  <RMSD_UB>
12.310

$$$$
CHEMBL327228
 OpenBabel10172500063D

 26 27  0  0  0  0  0  0  0  0999 V2000
  140.7310  136.6260  149.2160 C   0  0  0  0  0  0  0  0  0  0  0  0
  140.0570  135.6370  148.9460 O   0  0  0  0  0  0  0  0  0  0  0  0
  140.2230  137.9100  149.1920 N   0  0  0  0  0  0  0  0  0  0  0  0
  140.8140  138.6680  149.4050 H   0  0  0  0  0  0  0  0  0  0  0  0
  142.1860  136.5270  149.6430 C   0  0  0  0  0  2  0  0  0  0  0  0
  144.0550  137.6130  152.8270 C   0  0  0  0  0  0  0  0  0  0  0  0
  143.8010  137.1470  151.5320 C   0  0  0  0  0  3  0  0  0  0  0  0
  142.4930  137.0270  151.0390 C   0  0  0  0  0  0  0  0  0  0  0  0
  141.4280  137.3900  151.8770 C   0  0  0  0  0  3  0  0  0  0  0  0
  141.6630  137.8580  153.1730 C   0  0  0  0  0  3  0  0  0  0  0  0
  142.9720  137.9630  153.6410 C   0  0  0  0  0  0  0  0  0  0  0  0
  145.9280  136.5940  153.8790 C   0  0  0  0  0  1  0  0  0  0  0  0
  145.3070  137.7670  153.3680 O   0  0  0  0  0  0  0  0  0  0  0  0
  143.2050  138.4140  154.9130 O   0  0  0  0  0  0  0  0  0  0  0  0
  143.8950  139.0270  155.0730 H   0  0  0  0  0  0  0  0  0  0  0  0
  138.8370  138.1620  148.8620 C   0  0  0  0  0  2  0  0  0  0  0  0
  137.9460  138.3180  150.0910 C   0  0  0  0  0  2  0  0  0  0  0  0
  137.2070  137.0240  150.4710 C   0  0  0  0  0  2  0  0  0  0  0  0
  137.0800  136.7930  151.9620 C   0  0  0  0  0  0  0  0  0  0  0  0
  136.1730  135.8430  152.4450 C   0  0  0  0  0  3  0  0  0  0  0  0
  136.0160  135.6440  153.8200 C   0  0  0  0  0  3  0  0  0  0  0  0
  136.7780  136.3710  154.7480 C   0  0  0  0  0  0  0  0  0  0  0  0
  136.5580  136.1450  156.2170 C   0  0  0  0  0  1  0  0  0  0  0  0
  137.7260  137.2930  154.2760 C   0  0  0  0  0  0  0  0  0  0  0  0
  138.6090  138.1160  155.1700 C   0  0  0  0  0  1  0  0  0  0  0  0
  137.8680  137.4800  152.8900 C   0  0  0  0  0  3  0  0  0  0  0  0
  1  5  1  0  0  0  0
  2  1  2  0  0  0  0
  3  1  1  0  0  0  0
  3  4  1  0  0  0  0
  5  8  1  0  0  0  0
  6 13  1  0  0  0  0
  6 11  1  0  0  0  0
  7  6  2  0  0  0  0
  8  7  1  0  0  0  0
  8  9  2  0  0  0  0
  9 10  1  0  0  0  0
 10 11  2  0  0  0  0
 11 14  1  0  0  0  0
 13 12  1  0  0  0  0
 14 15  1  0  0  0  0
 16  3  1  0  0  0  0
 16 17  1  0  0  0  0
 17 18  1  0  0  0  0
 18 19  1  0  0  0  0
 19 20  2  0  0  0  0
 19 26  1  0  0  0  0
 20 21  1  0  0  0  0
 21 22  2  0  0  0  0
 22 23  1  0  0  0  0
 24 22  1  0  0  0  0
 24 25  1  0  0  0  0
 26 24  2  0  0  0  0
M  END
>  <MODEL>
5

>  <REMARK>
 VINA RESULT:    -6.316      3.370      5.472
 INTER + INTRA:         -10.724
 INTER:                  -9.738
 INTRA:                  -0.986
 UNBOUND:                -1.639
  Name = CHEMBL327228
  11 active torsions:
  status: ('A' for Active; 'I' for Inactive)
    1  A    between atoms: C_1  and  O_2
    2  A    between atoms: O_2  and  C_3
    3  A    between atoms: C_5  and  C_6
    4  A    between atoms: C_6  and  C_7
    5  A    between atoms: N_9  and  C_10
    6  A    between atoms: C_10  and  C_11
    7  A    between atoms: C_11  and  C_12
    8  A    between atoms: C_12  and  C_13
    9  A    between atoms: C_16  and  C_17
   10  A    between atoms: C_18  and  C_19
   11  A    between atoms: C_23  and  O_24
                            x       y       z     vdW  Elec       q    Type
                         _______ _______ _______ _____ _____    ______ ____

>  <TORSDO>
F 8

>  <SCORE>
-6.316

>  <RMSD_LB>
3.370

>  <RMSD_UB>
5.472

$$$$
CHEMBL327228
 OpenBabel10172500063D

 26 27  0  0  0  0  0  0  0  0999 V2000
  144.8590  140.9130  149.9830 C   0  0  0  0  0  0  0  0  0  0  0  0
  144.4530  141.1470  151.1170 O   0  0  0  0  0  0  0  0  0  0  0  0
  145.8730  141.6350  149.3840 N   0  0  0  0  0  0  0  0  0  0  0  0
  146.1490  141.4120  148.4670 H   0  0  0  0  0  0  0  0  0  0  0  0
  144.3100  139.7740  149.1410 C   0  0  0  0  0  2  0  0  0  0  0  0
  146.8750  136.9290  148.7710 C   0  0  0  0  0  0  0  0  0  0  0  0
  146.2320  138.1630  148.6190 C   0  0  0  0  0  3  0  0  0  0  0  0
  145.0290  138.4490  149.2820 C   0  0  0  0  0  0  0  0  0  0  0  0
  144.4750  137.4650  150.1140 C   0  0  0  0  0  3  0  0  0  0  0  0
  145.1040  136.2270  150.2760 C   0  0  0  0  0  3  0  0  0  0  0  0
  146.2960  135.9650  149.6030 C   0  0  0  0  0  0  0  0  0  0  0  0
  147.9780  136.1620  146.8090 C   0  0  0  0  0  1  0  0  0  0  0  0
  148.0580  136.5890  148.1640 O   0  0  0  0  0  0  0  0  0  0  0  0
  146.9100  134.7510  149.7550 O   0  0  0  0  0  0  0  0  0  0  0  0
  147.8190  134.6570  149.5460 H   0  0  0  0  0  0  0  0  0  0  0  0
  146.5380  142.7140  150.0830 C   0  0  0  0  0  2  0  0  0  0  0  0
  147.8690  142.2970  150.7040 C   0  0  0  0  0  2  0  0  0  0  0  0
  147.7950  142.1140  152.2280 C   0  0  0  0  0  2  0  0  0  0  0  0
  147.4960  140.6980  152.6720 C   0  0  0  0  0  0  0  0  0  0  0  0
  147.7330  139.6290  151.8000 C   0  0  0  0  0  3  0  0  0  0  0  0
  147.4270  138.3190  152.1820 C   0  0  0  0  0  3  0  0  0  0  0  0
  146.8990  138.0390  153.4520 C   0  0  0  0  0  0  0  0  0  0  0  0
  146.5590  136.6210  153.8100 C   0  0  0  0  0  1  0  0  0  0  0  0
  146.7010  139.0970  154.3540 C   0  0  0  0  0  0  0  0  0  0  0  0
  146.1580  138.9210  155.7430 C   0  0  0  0  0  1  0  0  0  0  0  0
  147.0140  140.4080  153.9520 C   0  0  0  0  0  3  0  0  0  0  0  0
  1  2  2  0  0  0  0
  3  1  1  0  0  0  0
  3 16  1  0  0  0  0
  4  3  1  0  0  0  0
  5  8  1  0  0  0  0
  5  1  1  0  0  0  0
  6 11  1  0  0  0  0
  7  6  2  0  0  0  0
  7  8  1  0  0  0  0
  8  9  2  0  0  0  0
  9 10  1  0  0  0  0
 11 14  1  0  0  0  0
 11 10  2  0  0  0  0
 12 13  1  0  0  0  0
 13  6  1  0  0  0  0
 15 14  1  0  0  0  0
 16 17  1  0  0  0  0
 17 18  1  0  0  0  0
 18 19  1  0  0  0  0
 19 26  1  0  0  0  0
 20 21  1  0  0  0  0
 20 19  2  0  0  0  0
 21 22  2  0  0  0  0
 22 23  1  0  0  0  0
 22 24  1  0  0  0  0
 24 25  1  0  0  0  0
 26 24  2  0  0  0  0
M  END
>  <MODEL>
6

>  <REMARK>
 VINA RESULT:    -6.109      2.943      5.943
 INTER + INTRA:         -10.426
 INTER:                  -8.353
 INTRA:                  -2.073
 UNBOUND:                -1.639
  Name = CHEMBL327228
  11 active torsions:
  status: ('A' for Active; 'I' for Inactive)
    1  A    between atoms: C_1  and  O_2
    2  A    between atoms: O_2  and  C_3
    3  A    between atoms: C_5  and  C_6
    4  A    between atoms: C_6  and  C_7
    5  A    between atoms: N_9  and  C_10
    6  A    between atoms: C_10  and  C_11
    7  A    between atoms: C_11  and  C_12
    8  A    between atoms: C_12  and  C_13
    9  A    between atoms: C_16  and  C_17
   10  A    between atoms: C_18  and  C_19
   11  A    between atoms: C_23  and  O_24
                            x       y       z     vdW  Elec       q    Type
                         _______ _______ _______ _____ _____    ______ ____

>  <TORSDO>
F 8

>  <SCORE>
-6.109

>  <RMSD_LB>
2.943

>  <RMSD_UB>
5.943

$$$$
CHEMBL327228
 OpenBabel10172500063D

 26 27  0  0  0  0  0  0  0  0999 V2000
  146.2120  140.1480  152.0830 C   0  0  0  0  0  0  0  0  0  0  0  0
  145.6990  141.2620  152.0940 O   0  0  0  0  0  0  0  0  0  0  0  0
  146.2730  139.3380  153.2000 N   0  0  0  0  0  0  0  0  0  0  0  0
  146.7080  138.4580  153.1370 H   0  0  0  0  0  0  0  0  0  0  0  0
  146.7960  139.5330  150.8220 C   0  0  0  0  0  2  0  0  0  0  0  0
  144.6230  137.1130  148.7660 C   0  0  0  0  0  0  0  0  0  0  0  0
  145.2490  138.2840  149.2070 C   0  0  0  0  0  3  0  0  0  0  0  0
  146.1030  138.2840  150.3210 C   0  0  0  0  0  0  0  0  0  0  0  0
  146.3240  137.0720  150.9930 C   0  0  0  0  0  3  0  0  0  0  0  0
  145.7070  135.8930  150.5650 C   0  0  0  0  0  3  0  0  0  0  0  0
  144.8590  135.9200  149.4590 C   0  0  0  0  0  0  0  0  0  0  0  0
  144.4080  137.0430  146.3980 C   0  0  0  0  0  1  0  0  0  0  0  0
  143.7890  137.0390  147.6790 O   0  0  0  0  0  0  0  0  0  0  0  0
  144.2470  134.7680  149.0420 O   0  0  0  0  0  0  0  0  0  0  0  0
  144.4250  133.9590  149.4800 H   0  0  0  0  0  0  0  0  0  0  0  0
  145.7050  139.7590  154.4630 C   0  0  0  0  0  2  0  0  0  0  0  0
  144.2910  139.2300  154.6920 C   0  0  0  0  0  2  0  0  0  0  0  0
  144.0070  137.9180  153.9440 C   0  0  0  0  0  2  0  0  0  0  0  0
  142.6430  137.8550  153.2910 C   0  0  0  0  0  0  0  0  0  0  0  0
  141.5090  138.2640  154.0050 C   0  0  0  0  0  3  0  0  0  0  0  0
  140.2380  138.1770  153.4290 C   0  0  0  0  0  3  0  0  0  0  0  0
  140.0660  137.7040  152.1190 C   0  0  0  0  0  0  0  0  0  0  0  0
  138.6800  137.6020  151.5500 C   0  0  0  0  0  1  0  0  0  0  0  0
  141.2000  137.3370  151.3740 C   0  0  0  0  0  0  0  0  0  0  0  0
  141.1450  136.8330  149.9610 C   0  0  0  0  0  1  0  0  0  0  0  0
  142.4700  137.4300  151.9700 C   0  0  0  0  0  3  0  0  0  0  0  0
  1  2  2  0  0  0  0
  1  3  1  0  0  0  0
  3 16  1  0  0  0  0
  4  3  1  0  0  0  0
  5  1  1  0  0  0  0
  6  7  2  0  0  0  0
  6 11  1  0  0  0  0
  7  8  1  0  0  0  0
  8  5  1  0  0  0  0
  8  9  2  0  0  0  0
 10  9  1  0  0  0  0
 11 10  2  0  0  0  0
 12 13  1  0  0  0  0
 13  6  1  0  0  0  0
 14 11  1  0  0  0  0
 14 15  1  0  0  0  0
 16 17  1  0  0  0  0
 18 17  1  0  0  0  0
 19 18  1  0  0  0  0
 19 20  1  0  0  0  0
 21 20  2  0  0  0  0
 22 21  1  0  0  0  0
 23 22  1  0  0  0  0
 24 26  1  0  0  0  0
 24 22  2  0  0  0  0
 25 24  1  0  0  0  0
 26 19  2  0  0  0  0
M  END
>  <MODEL>
7

>  <REMARK>
 VINA RESULT:    -6.069      2.273      5.098
 INTER + INTRA:         -10.369
 INTER:                  -8.780
 INTRA:                  -1.589
 UNBOUND:                -1.639
  Name = CHEMBL327228
  11 active torsions:
  status: ('A' for Active; 'I' for Inactive)
    1  A    between atoms: C_1  and  O_2
    2  A    between atoms: O_2  and  C_3
    3  A    between atoms: C_5  and  C_6
    4  A    between atoms: C_6  and  C_7
    5  A    between atoms: N_9  and  C_10
    6  A    between atoms: C_10  and  C_11
    7  A    between atoms: C_11  and  C_12
    8  A    between atoms: C_12  and  C_13
    9  A    between atoms: C_16  and  C_17
   10  A    between atoms: C_18  and  C_19
   11  A    between atoms: C_23  and  O_24
                            x       y       z     vdW  Elec       q    Type
                         _______ _______ _______ _____ _____    ______ ____

>  <TORSDO>
F 8

>  <SCORE>
-6.069

>  <RMSD_LB>
2.273

>  <RMSD_UB>
5.098

$$$$
CHEMBL327228
 OpenBabel10172500063D

 26 27  0  0  0  0  0  0  0  0999 V2000
  145.3280  138.8980  149.2190 C   0  0  0  0  0  0  0  0  0  0  0  0
  144.4310  139.6680  148.8910 O   0  0  0  0  0  0  0  0  0  0  0  0
  145.1850  137.5240  149.1960 N   0  0  0  0  0  0  0  0  0  0  0  0
  145.9340  136.9550  149.4830 H   0  0  0  0  0  0  0  0  0  0  0  0
  146.7030  139.3840  149.6440 C   0  0  0  0  0  2  0  0  0  0  0  0
  147.8180  140.7570  153.0620 C   0  0  0  0  0  0  0  0  0  0  0  0
  147.6530  140.6170  151.6790 C   0  0  0  0  0  3  0  0  0  0  0  0
  146.9030  139.5630  151.1340 C   0  0  0  0  0  0  0  0  0  0  0  0
  146.3100  138.6420  152.0110 C   0  0  0  0  0  3  0  0  0  0  0  0
  146.4660  138.7670  153.3940 C   0  0  0  0  0  3  0  0  0  0  0  0
  147.2200  139.8190  153.9110 C   0  0  0  0  0  0  0  0  0  0  0  0
  149.6790  142.2350  152.9710 C   0  0  0  0  0  1  0  0  0  0  0  0
  148.5270  141.7680  153.6620 O   0  0  0  0  0  0  0  0  0  0  0  0
  147.3800  139.9410  155.2660 O   0  0  0  0  0  0  0  0  0  0  0  0
  146.9650  139.3310  155.8420 H   0  0  0  0  0  0  0  0  0  0  0  0
  143.9520  136.9060  148.7560 C   0  0  0  0  0  2  0  0  0  0  0  0
  143.1240  136.3340  149.9040 C   0  0  0  0  0  2  0  0  0  0  0  0
  143.3900  137.0310  151.2480 C   0  0  0  0  0  2  0  0  0  0  0  0
  142.1400  137.3950  152.0200 C   0  0  0  0  0  0  0  0  0  0  0  0
  140.8950  137.3790  151.3790 C   0  0  0  0  0  3  0  0  0  0  0  0
  139.7360  137.7480  152.0680 C   0  0  0  0  0  3  0  0  0  0  0  0
  139.7840  138.1190  153.4210 C   0  0  0  0  0  0  0  0  0  0  0  0
  138.5180  138.5340  154.1150 C   0  0  0  0  0  1  0  0  0  0  0  0
  141.0190  138.0920  154.0900 C   0  0  0  0  0  0  0  0  0  0  0  0
  141.1940  138.4520  155.5370 C   0  0  0  0  0  1  0  0  0  0  0  0
  142.1740  137.7190  153.3800 C   0  0  0  0  0  3  0  0  0  0  0  0
  1  5  1  0  0  0  0
  2  1  2  0  0  0  0
  3  1  1  0  0  0  0
  3  4  1  0  0  0  0
  5  8  1  0  0  0  0
  6 13  1  0  0  0  0
  6 11  1  0  0  0  0
  7  6  2  0  0  0  0
  8  7  1  0  0  0  0
  8  9  2  0  0  0  0
  9 10  1  0  0  0  0
 10 11  2  0  0  0  0
 11 14  1  0  0  0  0
 12 13  1  0  0  0  0
 14 15  1  0  0  0  0
 16  3  1  0  0  0  0
 16 17  1  0  0  0  0
 17 18  1  0  0  0  0
 18 19  1  0  0  0  0
 19 26  1  0  0  0  0
 20 19  2  0  0  0  0
 20 21  1  0  0  0  0
 21 22  2  0  0  0  0
 22 24  1  0  0  0  0
 22 23  1  0  0  0  0
 24 25  1  0  0  0  0
 26 24  2  0  0  0  0
M  END
>  <MODEL>
8

>  <REMARK>
 VINA RESULT:    -5.991      1.491      2.457
 INTER + INTRA:         -10.256
 INTER:                  -9.499
 INTRA:                  -0.758
 UNBOUND:                -1.639
  Name = CHEMBL327228
  11 active torsions:
  status: ('A' for Active; 'I' for Inactive)
    1  A    between atoms: C_1  and  O_2
    2  A    between atoms: O_2  and  C_3
    3  A    between atoms: C_5  and  C_6
    4  A    between atoms: C_6  and  C_7
    5  A    between atoms: N_9  and  C_10
    6  A    between atoms: C_10  and  C_11
    7  A    between atoms: C_11  and  C_12
    8  A    between atoms: C_12  and  C_13
    9  A    between atoms: C_16  and  C_17
   10  A    between atoms: C_18  and  C_19
   11  A    between atoms: C_23  and  O_24
                            x       y       z     vdW  Elec       q    Type
                         _______ _______ _______ _____ _____    ______ ____

>  <TORSDO>
F 8

>  <SCORE>
-5.991

>  <RMSD_LB>
1.491

>  <RMSD_UB>
2.457

$$$$
CHEMBL327228
 OpenBabel10172500063D

 26 27  0  0  0  0  0  0  0  0999 V2000
  138.3880  138.6170  147.4340 C   0  0  0  0  0  0  0  0  0  0  0  0
  139.5940  138.5060  147.2430 O   0  0  0  0  0  0  0  0  0  0  0  0
  137.8280  138.6440  148.6970 N   0  0  0  0  0  0  0  0  0  0  0  0
  136.8510  138.7210  148.7920 H   0  0  0  0  0  0  0  0  0  0  0  0
  137.3930  138.7750  146.2970 C   0  0  0  0  0  2  0  0  0  0  0  0
  134.2230  136.5960  146.1780 C   0  0  0  0  0  0  0  0  0  0  0  0
  135.0760  137.6870  146.3830 C   0  0  0  0  0  3  0  0  0  0  0  0
  136.4460  137.6130  146.0880 C   0  0  0  0  0  0  0  0  0  0  0  0
  136.9540  136.4110  145.5740 C   0  0  0  0  0  3  0  0  0  0  0  0
  136.1160  135.3120  145.3630 C   0  0  0  0  0  3  0  0  0  0  0  0
  134.7600  135.4090  145.6690 C   0  0  0  0  0  0  0  0  0  0  0  0
  132.4780  136.9610  147.7510 C   0  0  0  0  0  1  0  0  0  0  0  0
  132.8750  136.6040  146.4330 O   0  0  0  0  0  0  0  0  0  0  0  0
  133.9390  134.3310  145.4700 O   0  0  0  0  0  0  0  0  0  0  0  0
  133.5320  134.2000  144.6360 H   0  0  0  0  0  0  0  0  0  0  0  0
  138.6510  138.5640  149.8850 C   0  0  0  0  0  2  0  0  0  0  0  0
  138.5470  137.2180  150.5980 C   0  0  0  0  0  2  0  0  0  0  0  0
  138.2600  136.0480  149.6430 C   0  0  0  0  0  2  0  0  0  0  0  0
  136.9890  135.2870  149.9540 C   0  0  0  0  0  0  0  0  0  0  0  0
  136.2050  134.7840  148.9090 C   0  0  0  0  0  3  0  0  0  0  0  0
  135.0090  134.1110  149.1780 C   0  0  0  0  0  3  0  0  0  0  0  0
  134.5760  133.9010  150.4970 C   0  0  0  0  0  0  0  0  0  0  0  0
  133.2720  133.1980  150.7390 C   0  0  0  0  0  1  0  0  0  0  0  0
  135.3780  134.3580  151.5560 C   0  0  0  0  0  0  0  0  0  0  0  0
  135.0290  134.1790  153.0060 C   0  0  0  0  0  1  0  0  0  0  0  0
  136.5770  135.0330  151.2660 C   0  0  0  0  0  3  0  0  0  0  0  0
  1  3  1  0  0  0  0
  2  1  2  0  0  0  0
  3  4  1  0  0  0  0
  3 16  1  0  0  0  0
  5  1  1  0  0  0  0
  6  7  1  0  0  0  0
  6 13  1  0  0  0  0
  8  5  1  0  0  0  0
  8  7  2  0  0  0  0
  9  8  1  0  0  0  0
 10  9  2  0  0  0  0
 10 11  1  0  0  0  0
 11  6  2  0  0  0  0
 13 12  1  0  0  0  0
 14 11  1  0  0  0  0
 15 14  1  0  0  0  0
 16 17  1  0  0  0  0
 18 19  1  0  0  0  0
 18 17  1  0  0  0  0
 19 26  1  0  0  0  0
 20 21  1  0  0  0  0
 20 19  2  0  0  0  0
 21 22  2  0  0  0  0
 22 23  1  0  0  0  0
 22 24  1  0  0  0  0
 24 25  1  0  0  0  0
 26 24  2  0  0  0  0
M  END
>  <MODEL>
9

>  <REMARK>
 VINA RESULT:    -5.692      7.271     10.929
 INTER + INTRA:          -9.826
 INTER:                  -8.187
 INTRA:                  -1.639
 UNBOUND:                -1.639
  Name = CHEMBL327228
  11 active torsions:
  status: ('A' for Active; 'I' for Inactive)
    1  A    between atoms: C_1  and  O_2
    2  A    between atoms: O_2  and  C_3
    3  A    between atoms: C_5  and  C_6
    4  A    between atoms: C_6  and  C_7
    5  A    between atoms: N_9  and  C_10
    6  A    between atoms: C_10  and  C_11
    7  A    between atoms: C_11  and  C_12
    8  A    between atoms: C_12  and  C_13
    9  A    between atoms: C_16  and  C_17
   10  A    between atoms: C_18  and  C_19
   11  A    between atoms: C_23  and  O_24
                            x       y       z     vdW  Elec       q    Type
                         _______ _______ _______ _____ _____    ______ ____

>  <TORSDO>
F 8

>  <SCORE>
-5.692

>  <RMSD_LB>
7.271

>  <RMSD_UB>
10.929

$$$$
