CHEMBL4438493
 OpenBabel10162523373D

 34 36  0  0  0  0  0  0  0  0999 V2000
  140.4880  138.0540  152.6570 C   0  0  0  0  0  2  0  0  0  0  0  0
  140.5140  138.4180  154.1450 C   0  0  0  0  0  2  0  0  0  0  0  0
  142.8370  138.8700  153.6290 N   0  0  0  0  0  0  0  0  0  0  0  0
  141.8320  139.0530  154.5540 C   0  0  0  0  0  0  0  0  0  0  0  0
  141.9980  139.6350  155.6190 O   0  0  0  0  0  0  0  0  0  0  0  0
  142.6320  138.4120  152.7820 H   0  0  0  0  0  0  0  0  0  0  0  0
  144.1850  139.3360  153.8680 C   0  0  0  0  0  2  0  0  0  0  0  0
  144.7800  140.8170  150.3940 C   0  0  0  0  0  0  0  0  0  0  0  0
  144.3390  139.9820  151.4290 C   0  0  0  0  0  3  0  0  0  0  0  0
  144.6990  140.2300  152.7670 C   0  0  0  0  0  0  0  0  0  0  0  0
  145.5310  141.3190  153.0550 C   0  0  0  0  0  3  0  0  0  0  0  0
  145.9820  142.1560  152.0310 C   0  0  0  0  0  3  0  0  0  0  0  0
  145.6070  141.9010  150.7120 C   0  0  0  0  0  0  0  0  0  0  0  0
  143.4550  139.7080  148.7570 C   0  0  0  0  0  1  0  0  0  0  0  0
  144.4600  140.6610  149.0700 O   0  0  0  0  0  0  0  0  0  0  0  0
  146.0490  142.7260  149.7090 O   0  0  0  0  0  0  0  0  0  0  0  0
  145.4680  142.9730  149.0160 H   0  0  0  0  0  0  0  0  0  0  0  0
  139.3150  138.6760  151.8890 C   0  0  0  0  0  2  0  0  0  0  0  0
  138.3920  137.6260  151.2700 C   0  0  0  0  0  2  0  0  0  0  0  0
  137.4130  137.1250  152.2050 N   0  0  0  0  0  0  0  0  0  0  0  0
  136.3580  136.3310  151.7980 C   0  0  0  0  0  0  0  0  0  0  0  0
  136.1540  136.0470  150.6230 O   0  0  0  0  0  0  0  0  0  0  0  0
  137.4980  137.3560  153.1580 H   0  0  0  0  0  0  0  0  0  0  0  0
  135.5230  135.8450  152.8950 C   0  0  0  0  0  0  0  0  0  0  0  0
  134.2140  135.4000  152.7280 N   0  0  0  0  0  0  0  0  0  0  0  0
  133.8140  135.0630  153.9360 C   0  0  0  0  0  3  0  0  0  0  0  0
  134.7890  135.2770  154.8770 N   0  0  0  0  0  0  0  0  0  0  0  0
  134.7350  135.0630  156.2390 C   0  0  0  0  0  0  0  0  0  0  0  0
  133.7170  134.6210  156.7470 O   0  0  0  0  0  0  0  0  0  0  0  0
  135.9310  135.4160  156.8420 N   0  0  0  0  0  0  0  0  0  0  0  0
  136.0900  135.2750  158.2750 C   0  0  0  0  0  1  0  0  0  0  0  0
  137.0300  135.9090  156.1760 N   0  0  0  0  0  0  0  0  0  0  0  0
  136.9980  136.0720  154.9330 N   0  0  0  0  0  0  0  0  0  0  0  0
  135.8860  135.7720  154.2280 C   0  0  0  0  0  0  0  0  0  0  0  0
  1  2  1  0  0  0  0
  2  4  1  0  0  0  0
  3  7  1  0  0  0  0
  3  4  1  0  0  0  0
  4  5  2  0  0  0  0
  6  3  1  0  0  0  0
  8 13  2  0  0  0  0
  8  9  1  0  0  0  0
  9 10  2  0  0  0  0
 10 11  1  0  0  0  0
 10  7  1  0  0  0  0
 12 11  2  0  0  0  0
 13 12  1  0  0  0  0
 14 15  1  0  0  0  0
 15  8  1  0  0  0  0
 16 13  1  0  0  0  0
 17 16  1  0  0  0  0
 18  1  1  0  0  0  0
 19 18  1  0  0  0  0
 19 20  1  0  0  0  0
 20 23  1  0  0  0  0
 21 20  1  0  0  0  0
 21 24  1  0  0  0  0
 22 21  2  0  0  0  0
 24 34  2  0  0  0  0
 25 24  1  0  0  0  0
 25 26  2  0  0  0  0
 26 27  1  0  0  0  0
 27 28  1  0  0  0  0
 28 29  2  0  0  0  0
 28 30  1  0  0  0  0
 30 31  1  0  0  0  0
 32 30  1  0  0  0  0
 33 32  2  0  0  0  0
 34 27  1  0  0  0  0
 34 33  1  0  0  0  0
M  END
>  <MODEL>
1

>  <REMARK>
 VINA RESULT:    -7.285      0.000      0.000
 INTER + INTRA:         -12.989
 INTER:                 -11.871
 INTRA:                  -1.118
 UNBOUND:                -1.658
  Name = CHEMBL4438493
  12 active torsions:
  status: ('A' for Active; 'I' for Inactive)
    1  A    between atoms: C_1  and  O_2
    2  A    between atoms: O_2  and  C_3
    3  A    between atoms: C_5  and  C_6
    4  A    between atoms: C_6  and  N_7
    5  A    between atoms: C_8  and  C_10
    6  A    between atoms: C_10  and  C_11
    7  A    between atoms: C_11  and  C_12
    8  A    between atoms: C_12  and  C_13
    9  A    between atoms: C_13  and  N_14
   10  A    between atoms: C_15  and  C_17
   11  A    between atoms: N_23  and  C_24
   12  A    between atoms: C_30  and  O_31
                            x       y       z     vdW  Elec       q    Type
                         _______ _______ _______ _____ _____    ______ ____

>  <TORSDO>
F 10

>  <SCORE>
-7.285

>  <RMSD_LB>
0.000

>  <RMSD_UB>
0.000

$$$$
CHEMBL4438493
 OpenBabel10162523373D

 34 36  0  0  0  0  0  0  0  0999 V2000
  140.9760  135.1270  148.5490 C   0  0  0  0  0  2  0  0  0  0  0  0
  139.7990  136.1010  148.4360 C   0  0  0  0  0  2  0  0  0  0  0  0
  137.7870  134.7530  148.4220 N   0  0  0  0  0  0  0  0  0  0  0  0
  138.6420  135.5100  147.6510 C   0  0  0  0  0  0  0  0  0  0  0  0
  138.5020  135.6580  146.4430 O   0  0  0  0  0  0  0  0  0  0  0  0
  137.9440  134.6930  149.3930 H   0  0  0  0  0  0  0  0  0  0  0  0
  136.6660  134.0460  147.8450 C   0  0  0  0  0  2  0  0  0  0  0  0
  134.1760  135.1250  150.5380 C   0  0  0  0  0  0  0  0  0  0  0  0
  135.3200  135.0520  149.7330 C   0  0  0  0  0  3  0  0  0  0  0  0
  135.4380  134.0820  148.7200 C   0  0  0  0  0  0  0  0  0  0  0  0
  134.3960  133.1650  148.5360 C   0  0  0  0  0  3  0  0  0  0  0  0
  133.2520  133.2220  149.3360 C   0  0  0  0  0  3  0  0  0  0  0  0
  133.1480  134.1970  150.3280 C   0  0  0  0  0  0  0  0  0  0  0  0
  134.6130  135.8100  152.7750 C   0  0  0  0  0  1  0  0  0  0  0  0
  133.9700  136.0470  151.5300 O   0  0  0  0  0  0  0  0  0  0  0  0
  132.0220  134.2520  151.1090 O   0  0  0  0  0  0  0  0  0  0  0  0
  132.1010  134.2590  152.0430 H   0  0  0  0  0  0  0  0  0  0  0  0
  142.2780  135.6540  147.9340 C   0  0  0  0  0  2  0  0  0  0  0  0
  143.4510  135.6150  148.9140 C   0  0  0  0  0  2  0  0  0  0  0  0
  143.1480  136.2550  150.1720 N   0  0  0  0  0  0  0  0  0  0  0  0
  143.8850  137.3260  150.6390 C   0  0  0  0  0  0  0  0  0  0  0  0
  144.8680  137.7640  150.0520 O   0  0  0  0  0  0  0  0  0  0  0  0
  142.3960  135.9200  150.7120 H   0  0  0  0  0  0  0  0  0  0  0  0
  143.3750  137.9000  151.8830 C   0  0  0  0  0  0  0  0  0  0  0  0
  144.1890  138.4770  152.8560 N   0  0  0  0  0  0  0  0  0  0  0  0
  143.3620  138.8580  153.8070 C   0  0  0  0  0  3  0  0  0  0  0  0
  142.0590  138.5490  153.5070 N   0  0  0  0  0  0  0  0  0  0  0  0
  140.9250  138.7720  154.2600 C   0  0  0  0  0  0  0  0  0  0  0  0
  141.0130  139.3190  155.3470 O   0  0  0  0  0  0  0  0  0  0  0  0
  139.7980  138.3010  153.6070 N   0  0  0  0  0  0  0  0  0  0  0  0
  138.4940  138.4300  154.2250 C   0  0  0  0  0  1  0  0  0  0  0  0
  139.8040  137.6940  152.3720 N   0  0  0  0  0  0  0  0  0  0  0  0
  140.8800  137.5310  151.7500 N   0  0  0  0  0  0  0  0  0  0  0  0
  142.0510  137.9410  152.2830 C   0  0  0  0  0  0  0  0  0  0  0  0
  2  1  1  0  0  0  0
  3  6  1  0  0  0  0
  4  3  1  0  0  0  0
  4  2  1  0  0  0  0
  5  4  2  0  0  0  0
  7  3  1  0  0  0  0
  7 10  1  0  0  0  0
  8 15  1  0  0  0  0
  9  8  2  0  0  0  0
 10  9  1  0  0  0  0
 11 10  2  0  0  0  0
 11 12  1  0  0  0  0
 12 13  2  0  0  0  0
 13  8  1  0  0  0  0
 13 16  1  0  0  0  0
 15 14  1  0  0  0  0
 16 17  1  0  0  0  0
 18  1  1  0  0  0  0
 18 19  1  0  0  0  0
 19 20  1  0  0  0  0
 20 21  1  0  0  0  0
 20 23  1  0  0  0  0
 21 24  1  0  0  0  0
 22 21  2  0  0  0  0
 24 34  2  0  0  0  0
 24 25  1  0  0  0  0
 25 26  2  0  0  0  0
 27 26  1  0  0  0  0
 27 28  1  0  0  0  0
 28 29  2  0  0  0  0
 30 31  1  0  0  0  0
 30 28  1  0  0  0  0
 32 30  1  0  0  0  0
 33 34  1  0  0  0  0
 33 32  2  0  0  0  0
 34 27  1  0  0  0  0
M  END
>  <MODEL>
2

>  <REMARK>
 VINA RESULT:    -6.302      3.491      9.693
 INTER + INTRA:         -11.461
 INTER:                 -10.222
 INTRA:                  -1.238
 UNBOUND:                -1.658
  Name = CHEMBL4438493
  12 active torsions:
  status: ('A' for Active; 'I' for Inactive)
    1  A    between atoms: C_1  and  O_2
    2  A    between atoms: O_2  and  C_3
    3  A    between atoms: C_5  and  C_6
    4  A    between atoms: C_6  and  N_7
    5  A    between atoms: C_8  and  C_10
    6  A    between atoms: C_10  and  C_11
    7  A    between atoms: C_11  and  C_12
    8  A    between atoms: C_12  and  C_13
    9  A    between atoms: C_13  and  N_14
   10  A    between atoms: C_15  and  C_17
   11  A    between atoms: N_23  and  C_24
   12  A    between atoms: C_30  and  O_31
                            x       y       z     vdW  Elec       q    Type
                         _______ _______ _______ _____ _____    ______ ____

>  <TORSDO>
F 10

>  <SCORE>
-6.302

>  <RMSD_LB>
3.491

>  <RMSD_UB>
9.693

$$$$
CHEMBL4438493
 OpenBabel10162523373D

 34 36  0  0  0  0  0  0  0  0999 V2000
  135.7230  136.3240  147.5360 C   0  0  0  0  0  2  0  0  0  0  0  0
  136.3890  134.9490  147.6560 C   0  0  0  0  0  2  0  0  0  0  0  0
  138.4070  136.2310  148.0430 N   0  0  0  0  0  0  0  0  0  0  0  0
  137.7660  135.0360  148.2890 C   0  0  0  0  0  0  0  0  0  0  0  0
  138.2750  134.1190  148.9230 O   0  0  0  0  0  0  0  0  0  0  0  0
  137.9330  136.9360  147.5450 H   0  0  0  0  0  0  0  0  0  0  0  0
  139.7570  136.4780  148.4990 C   0  0  0  0  0  2  0  0  0  0  0  0
  140.9890  137.7330  151.8930 C   0  0  0  0  0  0  0  0  0  0  0  0
  140.9080  137.0430  150.6770 C   0  0  0  0  0  3  0  0  0  0  0  0
  139.8050  137.2070  149.8180 C   0  0  0  0  0  0  0  0  0  0  0  0
  138.7660  138.0620  150.2060 C   0  0  0  0  0  3  0  0  0  0  0  0
  138.8320  138.7520  151.4190 C   0  0  0  0  0  3  0  0  0  0  0  0
  139.9370  138.5850  152.2530 C   0  0  0  0  0  0  0  0  0  0  0  0
  143.2440  138.2930  152.4090 C   0  0  0  0  0  1  0  0  0  0  0  0
  142.0330  137.6480  152.7770 O   0  0  0  0  0  0  0  0  0  0  0  0
  140.0000  139.2660  153.4410 O   0  0  0  0  0  0  0  0  0  0  0  0
  139.5820  140.1010  153.5250 H   0  0  0  0  0  0  0  0  0  0  0  0
  135.3080  136.9300  148.8830 C   0  0  0  0  0  2  0  0  0  0  0  0
  134.6730  135.9030  149.8210 C   0  0  0  0  0  2  0  0  0  0  0  0
  134.9710  136.1590  151.2100 N   0  0  0  0  0  0  0  0  0  0  0  0
  135.6730  135.2540  151.9820 C   0  0  0  0  0  0  0  0  0  0  0  0
  136.0360  134.1620  151.5610 O   0  0  0  0  0  0  0  0  0  0  0  0
  134.6660  137.0020  151.6190 H   0  0  0  0  0  0  0  0  0  0  0  0
  135.9580  135.7240  153.3370 C   0  0  0  0  0  0  0  0  0  0  0  0
  136.9120  136.6960  153.6290 N   0  0  0  0  0  0  0  0  0  0  0  0
  136.8710  136.8270  154.9390 C   0  0  0  0  0  3  0  0  0  0  0  0
  135.9520  135.9850  155.5100 N   0  0  0  0  0  0  0  0  0  0  0  0
  135.6410  135.8240  156.8440 C   0  0  0  0  0  0  0  0  0  0  0  0
  136.2160  136.4910  157.6890 O   0  0  0  0  0  0  0  0  0  0  0  0
  134.6590  134.8610  157.0110 N   0  0  0  0  0  0  0  0  0  0  0  0
  134.1850  134.5300  158.3390 C   0  0  0  0  0  1  0  0  0  0  0  0
  134.0680  134.1590  155.9850 N   0  0  0  0  0  0  0  0  0  0  0  0
  134.4060  134.3670  154.7960 N   0  0  0  0  0  0  0  0  0  0  0  0
  135.3590  135.2770  154.5010 C   0  0  0  0  0  0  0  0  0  0  0  0
  1  2  1  0  0  0  0
  1 18  1  0  0  0  0
  2  4  1  0  0  0  0
  3  4  1  0  0  0  0
  3  7  1  0  0  0  0
  4  5  2  0  0  0  0
  6  3  1  0  0  0  0
  7 10  1  0  0  0  0
  8 13  1  0  0  0  0
  8 15  1  0  0  0  0
  9  8  2  0  0  0  0
 10 11  2  0  0  0  0
 10  9  1  0  0  0  0
 11 12  1  0  0  0  0
 12 13  2  0  0  0  0
 13 16  1  0  0  0  0
 14 15  1  0  0  0  0
 16 17  1  0  0  0  0
 18 19  1  0  0  0  0
 19 20  1  0  0  0  0
 20 23  1  0  0  0  0
 20 21  1  0  0  0  0
 21 24  1  0  0  0  0
 22 21  2  0  0  0  0
 24 25  1  0  0  0  0
 24 34  2  0  0  0  0
 25 26  2  0  0  0  0
 26 27  1  0  0  0  0
 27 28  1  0  0  0  0
 28 30  1  0  0  0  0
 28 29  2  0  0  0  0
 30 31  1  0  0  0  0
 32 30  1  0  0  0  0
 33 32  2  0  0  0  0
 34 33  1  0  0  0  0
 34 27  1  0  0  0  0
M  END
>  <MODEL>
3

>  <REMARK>
 VINA RESULT:    -6.263      3.012      5.372
 INTER + INTRA:         -11.400
 INTER:                  -9.928
 INTRA:                  -1.472
 UNBOUND:                -1.658
  Name = CHEMBL4438493
  12 active torsions:
  status: ('A' for Active; 'I' for Inactive)
    1  A    between atoms: C_1  and  O_2
    2  A    between atoms: O_2  and  C_3
    3  A    between atoms: C_5  and  C_6
    4  A    between atoms: C_6  and  N_7
    5  A    between atoms: C_8  and  C_10
    6  A    between atoms: C_10  and  C_11
    7  A    between atoms: C_11  and  C_12
    8  A    between atoms: C_12  and  C_13
    9  A    between atoms: C_13  and  N_14
   10  A    between atoms: C_15  and  C_17
   11  A    between atoms: N_23  and  C_24
   12  A    between atoms: C_30  and  O_31
                            x       y       z     vdW  Elec       q    Type
                         _______ _______ _______ _____ _____    ______ ____

>  <TORSDO>
F 10

>  <SCORE>
-6.263

>  <RMSD_LB>
3.012

>  <RMSD_UB>
5.372

$$$$
CHEMBL4438493
 OpenBabel10162523373D

 34 36  0  0  0  0  0  0  0  0999 V2000
  138.7690  139.1410  149.1280 C   0  0  0  0  0  2  0  0  0  0  0  0
  139.1440  139.7110  150.4990 C   0  0  0  0  0  2  0  0  0  0  0  0
  140.3370  139.1120  152.5190 N   0  0  0  0  0  0  0  0  0  0  0  0
  139.5980  138.6280  151.4620 C   0  0  0  0  0  0  0  0  0  0  0  0
  139.3660  137.4370  151.2960 O   0  0  0  0  0  0  0  0  0  0  0  0
  140.4700  140.0850  152.6070 H   0  0  0  0  0  0  0  0  0  0  0  0
  140.9230  138.2310  153.5050 C   0  0  0  0  0  2  0  0  0  0  0  0
  137.8230  137.8640  155.7110 C   0  0  0  0  0  0  0  0  0  0  0  0
  138.6510  138.0570  154.5980 C   0  0  0  0  0  3  0  0  0  0  0  0
  140.0530  138.0550  154.7240 C   0  0  0  0  0  0  0  0  0  0  0  0
  140.6190  137.8780  155.9930 C   0  0  0  0  0  3  0  0  0  0  0  0
  139.8040  137.6920  157.1120 C   0  0  0  0  0  3  0  0  0  0  0  0
  138.4170  137.6860  156.9670 C   0  0  0  0  0  0  0  0  0  0  0  0
  135.8490  136.6250  155.2280 C   0  0  0  0  0  1  0  0  0  0  0  0
  136.4530  137.8310  155.6750 O   0  0  0  0  0  0  0  0  0  0  0  0
  137.6200  137.4990  158.0670 O   0  0  0  0  0  0  0  0  0  0  0  0
  137.8180  137.9420  158.8690 H   0  0  0  0  0  0  0  0  0  0  0  0
  139.9620  138.5760  148.3450 C   0  0  0  0  0  2  0  0  0  0  0  0
  139.7770  137.1060  147.9670 C   0  0  0  0  0  2  0  0  0  0  0  0
  138.4640  136.6070  148.3010 N   0  0  0  0  0  0  0  0  0  0  0  0
  137.4930  136.4120  147.3380 C   0  0  0  0  0  0  0  0  0  0  0  0
  137.6610  136.6980  146.1580 O   0  0  0  0  0  0  0  0  0  0  0  0
  138.2540  136.4000  149.2410 H   0  0  0  0  0  0  0  0  0  0  0  0
  136.2600  135.8150  147.8500 C   0  0  0  0  0  0  0  0  0  0  0  0
  135.1340  135.5820  147.0640 N   0  0  0  0  0  0  0  0  0  0  0  0
  134.2520  135.0540  147.8860 C   0  0  0  0  0  3  0  0  0  0  0  0
  134.7420  134.9430  149.1620 N   0  0  0  0  0  0  0  0  0  0  0  0
  134.1110  134.4590  150.2900 C   0  0  0  0  0  0  0  0  0  0  0  0
  132.9640  134.0510  150.2180 O   0  0  0  0  0  0  0  0  0  0  0  0
  134.9490  134.5260  151.3910 N   0  0  0  0  0  0  0  0  0  0  0  0
  134.4830  134.0710  152.6850 C   0  0  0  0  0  1  0  0  0  0  0  0
  136.2380  135.0060  151.3680 N   0  0  0  0  0  0  0  0  0  0  0  0
  136.7390  135.4270  150.2990 N   0  0  0  0  0  0  0  0  0  0  0  0
  136.0230  135.4220  149.1540 C   0  0  0  0  0  0  0  0  0  0  0  0
  1  2  1  0  0  0  0
  2  4  1  0  0  0  0
  3  6  1  0  0  0  0
  3  7  1  0  0  0  0
  4  3  1  0  0  0  0
  5  4  2  0  0  0  0
  7 10  1  0  0  0  0
  8 13  1  0  0  0  0
  9 10  1  0  0  0  0
  9  8  2  0  0  0  0
 10 11  2  0  0  0  0
 11 12  1  0  0  0  0
 13 12  2  0  0  0  0
 13 16  1  0  0  0  0
 14 15  1  0  0  0  0
 15  8  1  0  0  0  0
 16 17  1  0  0  0  0
 18  1  1  0  0  0  0
 19 20  1  0  0  0  0
 19 18  1  0  0  0  0
 20 23  1  0  0  0  0
 21 24  1  0  0  0  0
 21 20  1  0  0  0  0
 22 21  2  0  0  0  0
 24 34  2  0  0  0  0
 25 24  1  0  0  0  0
 25 26  2  0  0  0  0
 26 27  1  0  0  0  0
 27 28  1  0  0  0  0
 28 30  1  0  0  0  0
 29 28  2  0  0  0  0
 30 31  1  0  0  0  0
 32 30  1  0  0  0  0
 33 32  2  0  0  0  0
 34 27  1  0  0  0  0
 34 33  1  0  0  0  0
M  END
>  <MODEL>
4

>  <REMARK>
 VINA RESULT:    -6.180      4.130      6.535
 INTER + INTRA:         -11.271
 INTER:                  -9.949
 INTRA:                  -1.322
 UNBOUND:                -1.658
  Name = CHEMBL4438493
  12 active torsions:
  status: ('A' for Active; 'I' for Inactive)
    1  A    between atoms: C_1  and  O_2
    2  A    between atoms: O_2  and  C_3
    3  A    between atoms: C_5  and  C_6
    4  A    between atoms: C_6  and  N_7
    5  A    between atoms: C_8  and  C_10
    6  A    between atoms: C_10  and  C_11
    7  A    between atoms: C_11  and  C_12
    8  A    between atoms: C_12  and  C_13
    9  A    between atoms: C_13  and  N_14
   10  A    between atoms: C_15  and  C_17
   11  A    between atoms: N_23  and  C_24
   12  A    between atoms: C_30  and  O_31
                            x       y       z     vdW  Elec       q    Type
                         _______ _______ _______ _____ _____    ______ ____

>  <TORSDO>
F 10

>  <SCORE>
-6.180

>  <RMSD_LB>
4.130

>  <RMSD_UB>
6.535

$$$$
CHEMBL4438493
 OpenBabel10162523373D

 34 36  0  0  0  0  0  0  0  0999 V2000
  137.0550  138.2030  146.4670 C   0  0  0  0  0  2  0  0  0  0  0  0
  135.7310  138.7860  145.9630 C   0  0  0  0  0  2  0  0  0  0  0  0
  133.6440  137.9110  146.8260 N   0  0  0  0  0  0  0  0  0  0  0  0
  134.6370  137.7360  145.8870 C   0  0  0  0  0  0  0  0  0  0  0  0
  134.6540  136.8010  145.0950 O   0  0  0  0  0  0  0  0  0  0  0  0
  133.6780  138.6970  147.4190 H   0  0  0  0  0  0  0  0  0  0  0  0
  132.5520  136.9730  146.9630 C   0  0  0  0  0  2  0  0  0  0  0  0
  133.2050  135.4690  150.4170 C   0  0  0  0  0  0  0  0  0  0  0  0
  133.0180  136.3900  149.3790 C   0  0  0  0  0  3  0  0  0  0  0  0
  132.7840  135.9620  148.0590 C   0  0  0  0  0  0  0  0  0  0  0  0
  132.7610  134.5880  147.7860 C   0  0  0  0  0  3  0  0  0  0  0  0
  132.9520  133.6590  148.8110 C   0  0  0  0  0  3  0  0  0  0  0  0
  133.1730  134.1020  150.1160 C   0  0  0  0  0  0  0  0  0  0  0  0
  134.7470  136.1310  152.1050 C   0  0  0  0  0  1  0  0  0  0  0  0
  133.4170  135.7990  151.7300 O   0  0  0  0  0  0  0  0  0  0  0  0
  133.3570  133.1870  151.1210 O   0  0  0  0  0  0  0  0  0  0  0  0
  132.6850  132.5630  151.3140 H   0  0  0  0  0  0  0  0  0  0  0  0
  136.9440  137.5020  147.8270 C   0  0  0  0  0  2  0  0  0  0  0  0
  138.2110  136.7300  148.1970 C   0  0  0  0  0  2  0  0  0  0  0  0
  139.2770  137.5920  148.6490 N   0  0  0  0  0  0  0  0  0  0  0  0
  139.6250  137.6800  149.9830 C   0  0  0  0  0  0  0  0  0  0  0  0
  139.0240  137.0810  150.8680 O   0  0  0  0  0  0  0  0  0  0  0  0
  139.7680  138.1330  147.9890 H   0  0  0  0  0  0  0  0  0  0  0  0
  140.7840  138.5340  150.2390 C   0  0  0  0  0  0  0  0  0  0  0  0
  141.2160  139.5290  149.3650 N   0  0  0  0  0  0  0  0  0  0  0  0
  142.2760  140.0520  149.9440 C   0  0  0  0  0  3  0  0  0  0  0  0
  142.5600  139.4420  151.1400 N   0  0  0  0  0  0  0  0  0  0  0  0
  143.5940  139.7010  152.0160 C   0  0  0  0  0  0  0  0  0  0  0  0
  144.4000  140.5800  151.7640 O   0  0  0  0  0  0  0  0  0  0  0  0
  143.5370  138.8540  153.1110 N   0  0  0  0  0  0  0  0  0  0  0  0
  144.5340  138.9520  154.1560 C   0  0  0  0  0  1  0  0  0  0  0  0
  142.5770  137.8860  153.3050 N   0  0  0  0  0  0  0  0  0  0  0  0
  141.6680  137.7170  152.4590 N   0  0  0  0  0  0  0  0  0  0  0  0
  141.6160  138.4740  151.3420 C   0  0  0  0  0  0  0  0  0  0  0  0
  1 18  1  0  0  0  0
  2  1  1  0  0  0  0
  3  7  1  0  0  0  0
  3  6  1  0  0  0  0
  4  2  1  0  0  0  0
  4  3  1  0  0  0  0
  5  4  2  0  0  0  0
  7 10  1  0  0  0  0
  8 15  1  0  0  0  0
  9  8  2  0  0  0  0
 10  9  1  0  0  0  0
 11 10  2  0  0  0  0
 11 12  1  0  0  0  0
 12 13  2  0  0  0  0
 13  8  1  0  0  0  0
 13 16  1  0  0  0  0
 15 14  1  0  0  0  0
 16 17  1  0  0  0  0
 18 19  1  0  0  0  0
 19 20  1  0  0  0  0
 20 21  1  0  0  0  0
 21 24  1  0  0  0  0
 21 22  2  0  0  0  0
 23 20  1  0  0  0  0
 24 34  2  0  0  0  0
 25 26  2  0  0  0  0
 25 24  1  0  0  0  0
 26 27  1  0  0  0  0
 27 34  1  0  0  0  0
 27 28  1  0  0  0  0
 28 30  1  0  0  0  0
 29 28  2  0  0  0  0
 30 32  1  0  0  0  0
 30 31  1  0  0  0  0
 33 32  2  0  0  0  0
 34 33  1  0  0  0  0
M  END
>  <MODEL>
5

>  <REMARK>
 VINA RESULT:    -6.160      3.930     10.566
 INTER + INTRA:         -11.239
 INTER:                 -10.336
 INTRA:                  -0.903
 UNBOUND:                -1.658
  Name = CHEMBL4438493
  12 active torsions:
  status: ('A' for Active; 'I' for Inactive)
    1  A    between atoms: C_1  and  O_2
    2  A    between atoms: O_2  and  C_3
    3  A    between atoms: C_5  and  C_6
    4  A    between atoms: C_6  and  N_7
    5  A    between atoms: C_8  and  C_10
    6  A    between atoms: C_10  and  C_11
    7  A    between atoms: C_11  and  C_12
    8  A    between atoms: C_12  and  C_13
    9  A    between atoms: C_13  and  N_14
   10  A    between atoms: C_15  and  C_17
   11  A    between atoms: N_23  and  C_24
   12  A    between atoms: C_30  and  O_31
                            x       y       z     vdW  Elec       q    Type
                         _______ _______ _______ _____ _____    ______ ____

>  <TORSDO>
F 10

>  <SCORE>
-6.160

>  <RMSD_LB>
3.930

>  <RMSD_UB>
10.566

$$$$
CHEMBL4438493
 OpenBabel10162523373D

 34 36  0  0  0  0  0  0  0  0999 V2000
  139.0360  138.9890  149.4750 C   0  0  0  0  0  2  0  0  0  0  0  0
  139.3350  139.8960  150.6720 C   0  0  0  0  0  2  0  0  0  0  0  0
  140.9480  139.4480  152.4220 N   0  0  0  0  0  0  0  0  0  0  0  0
  139.7170  139.1020  151.9090 C   0  0  0  0  0  0  0  0  0  0  0  0
  139.0190  138.2130  152.3810 O   0  0  0  0  0  0  0  0  0  0  0  0
  141.4500  140.1880  152.0080 H   0  0  0  0  0  0  0  0  0  0  0  0
  141.5220  138.7560  153.5540 C   0  0  0  0  0  2  0  0  0  0  0  0
  145.2120  139.3140  152.7240 C   0  0  0  0  0  0  0  0  0  0  0  0
  143.8300  139.5070  152.8470 C   0  0  0  0  0  3  0  0  0  0  0  0
  143.0030  138.5120  153.4020 C   0  0  0  0  0  0  0  0  0  0  0  0
  143.5790  137.3040  153.8150 C   0  0  0  0  0  3  0  0  0  0  0  0
  144.9560  137.0980  153.6920 C   0  0  0  0  0  3  0  0  0  0  0  0
  145.7610  138.0980  153.1490 C   0  0  0  0  0  0  0  0  0  0  0  0
  145.6470  141.5830  152.1520 C   0  0  0  0  0  1  0  0  0  0  0  0
  146.0910  140.2350  152.2160 O   0  0  0  0  0  0  0  0  0  0  0  0
  147.1120  137.8930  153.0330 O   0  0  0  0  0  0  0  0  0  0  0  0
  147.4350  137.0710  152.7210 H   0  0  0  0  0  0  0  0  0  0  0  0
  140.2170  138.1020  149.0600 C   0  0  0  0  0  2  0  0  0  0  0  0
  139.9720  136.6210  149.3490 C   0  0  0  0  0  2  0  0  0  0  0  0
  138.5930  136.3350  149.6620 N   0  0  0  0  0  0  0  0  0  0  0  0
  137.7690  135.6670  148.7760 C   0  0  0  0  0  0  0  0  0  0  0  0
  138.1340  135.3250  147.6570 O   0  0  0  0  0  0  0  0  0  0  0  0
  138.2280  136.6250  150.5290 H   0  0  0  0  0  0  0  0  0  0  0  0
  136.4330  135.3890  149.3020 C   0  0  0  0  0  0  0  0  0  0  0  0
  135.3930  134.8770  148.5300 N   0  0  0  0  0  0  0  0  0  0  0  0
  134.3730  134.7810  149.3570 C   0  0  0  0  0  3  0  0  0  0  0  0
  134.6940  135.2150  150.6180 N   0  0  0  0  0  0  0  0  0  0  0  0
  133.8890  135.2830  151.7370 C   0  0  0  0  0  0  0  0  0  0  0  0
  132.7260  134.9210  151.6740 O   0  0  0  0  0  0  0  0  0  0  0  0
  134.5900  135.7900  152.8190 N   0  0  0  0  0  0  0  0  0  0  0  0
  133.9320  135.9510  154.0990 C   0  0  0  0  0  1  0  0  0  0  0  0
  135.9120  136.1730  152.7870 N   0  0  0  0  0  0  0  0  0  0  0  0
  136.5750  136.0760  151.7280 N   0  0  0  0  0  0  0  0  0  0  0  0
  136.0050  135.6020  150.5990 C   0  0  0  0  0  0  0  0  0  0  0  0
  1  2  1  0  0  0  0
  2  4  1  0  0  0  0
  3  7  1  0  0  0  0
  4  5  2  0  0  0  0
  4  3  1  0  0  0  0
  6  3  1  0  0  0  0
  8  9  2  0  0  0  0
  8 13  1  0  0  0  0
  9 10  1  0  0  0  0
 10  7  1  0  0  0  0
 10 11  2  0  0  0  0
 12 11  1  0  0  0  0
 13 12  2  0  0  0  0
 14 15  1  0  0  0  0
 15  8  1  0  0  0  0
 16 13  1  0  0  0  0
 17 16  1  0  0  0  0
 18 19  1  0  0  0  0
 18  1  1  0  0  0  0
 19 20  1  0  0  0  0
 20 23  1  0  0  0  0
 21 24  1  0  0  0  0
 21 20  1  0  0  0  0
 22 21  2  0  0  0  0
 24 34  2  0  0  0  0
 25 24  1  0  0  0  0
 25 26  2  0  0  0  0
 26 27  1  0  0  0  0
 27 28  1  0  0  0  0
 28 30  1  0  0  0  0
 29 28  2  0  0  0  0
 30 31  1  0  0  0  0
 32 30  1  0  0  0  0
 33 32  2  0  0  0  0
 34 27  1  0  0  0  0
 34 33  1  0  0  0  0
M  END
>  <MODEL>
6

>  <REMARK>
 VINA RESULT:    -6.004      2.617      3.922
 INTER + INTRA:         -10.997
 INTER:                  -9.576
 INTRA:                  -1.421
 UNBOUND:                -1.658
  Name = CHEMBL4438493
  12 active torsions:
  status: ('A' for Active; 'I' for Inactive)
    1  A    between atoms: C_1  and  O_2
    2  A    between atoms: O_2  and  C_3
    3  A    between atoms: C_5  and  C_6
    4  A    between atoms: C_6  and  N_7
    5  A    between atoms: C_8  and  C_10
    6  A    between atoms: C_10  and  C_11
    7  A    between atoms: C_11  and  C_12
    8  A    between atoms: C_12  and  C_13
    9  A    between atoms: C_13  and  N_14
   10  A    between atoms: C_15  and  C_17
   11  A    between atoms: N_23  and  C_24
   12  A    between atoms: C_30  and  O_31
                            x       y       z     vdW  Elec       q    Type
                         _______ _______ _______ _____ _____    ______ ____

>  <TORSDO>
F 10

>  <SCORE>
-6.004

>  <RMSD_LB>
2.617

>  <RMSD_UB>
3.922

$$$$
CHEMBL4438493
 OpenBabel10162523373D

 34 36  0  0  0  0  0  0  0  0999 V2000
  139.5140  135.4680  147.4690 C   0  0  0  0  0  2  0  0  0  0  0  0
  138.5130  136.2920  146.6530 C   0  0  0  0  0  2  0  0  0  0  0  0
  136.1730  136.0890  147.2410 N   0  0  0  0  0  0  0  0  0  0  0  0
  137.1910  135.5680  146.4720 C   0  0  0  0  0  0  0  0  0  0  0  0
  137.0500  134.5930  145.7450 O   0  0  0  0  0  0  0  0  0  0  0  0
  136.3470  136.8900  147.7890 H   0  0  0  0  0  0  0  0  0  0  0  0
  134.8560  135.4930  147.2660 C   0  0  0  0  0  2  0  0  0  0  0  0
  135.1080  134.4430  150.9330 C   0  0  0  0  0  0  0  0  0  0  0  0
  135.4110  134.9920  149.6800 C   0  0  0  0  0  3  0  0  0  0  0  0
  134.5220  134.8650  148.5960 C   0  0  0  0  0  0  0  0  0  0  0  0
  133.3280  134.1570  148.7780 C   0  0  0  0  0  3  0  0  0  0  0  0
  133.0170  133.6000  150.0200 C   0  0  0  0  0  3  0  0  0  0  0  0
  133.9040  133.7440  151.0870 C   0  0  0  0  0  0  0  0  0  0  0  0
  136.0070  135.8160  152.6570 C   0  0  0  0  0  1  0  0  0  0  0  0
  135.9030  134.5380  152.0450 O   0  0  0  0  0  0  0  0  0  0  0  0
  133.5940  133.1990  152.3060 O   0  0  0  0  0  0  0  0  0  0  0  0
  132.7120  132.9470  152.4950 H   0  0  0  0  0  0  0  0  0  0  0  0
  139.6330  135.9120  148.9330 C   0  0  0  0  0  2  0  0  0  0  0  0
  139.7980  137.4250  149.0780 C   0  0  0  0  0  2  0  0  0  0  0  0
  140.5760  137.7910  150.2380 N   0  0  0  0  0  0  0  0  0  0  0  0
  139.9790  138.1930  151.4170 C   0  0  0  0  0  0  0  0  0  0  0  0
  138.7650  138.3170  151.5390 O   0  0  0  0  0  0  0  0  0  0  0  0
  141.5590  137.7550  150.1870 H   0  0  0  0  0  0  0  0  0  0  0  0
  140.9220  138.4360  152.5080 C   0  0  0  0  0  0  0  0  0  0  0  0
  140.6570  138.1200  153.8380 N   0  0  0  0  0  0  0  0  0  0  0  0
  141.7340  138.4970  154.4960 C   0  0  0  0  0  3  0  0  0  0  0  0
  142.6740  139.0500  153.6650 N   0  0  0  0  0  0  0  0  0  0  0  0
  143.9100  139.5730  153.9870 C   0  0  0  0  0  0  0  0  0  0  0  0
  144.2890  139.5710  155.1470 O   0  0  0  0  0  0  0  0  0  0  0  0
  144.5570  140.0460  152.8570 N   0  0  0  0  0  0  0  0  0  0  0  0
  145.8720  140.6420  152.9690 C   0  0  0  0  0  1  0  0  0  0  0  0
  144.0410  140.0000  151.5810 N   0  0  0  0  0  0  0  0  0  0  0  0
  142.9080  139.5060  151.3730 N   0  0  0  0  0  0  0  0  0  0  0  0
  142.1720  139.0150  152.3940 C   0  0  0  0  0  0  0  0  0  0  0  0
  1 18  1  0  0  0  0
  2  1  1  0  0  0  0
  3  7  1  0  0  0  0
  3  6  1  0  0  0  0
  4  2  1  0  0  0  0
  4  3  1  0  0  0  0
  5  4  2  0  0  0  0
  7 10  1  0  0  0  0
  8 13  1  0  0  0  0
  8 15  1  0  0  0  0
  9  8  2  0  0  0  0
 10 11  2  0  0  0  0
 10  9  1  0  0  0  0
 11 12  1  0  0  0  0
 12 13  2  0  0  0  0
 13 16  1  0  0  0  0
 15 14  1  0  0  0  0
 16 17  1  0  0  0  0
 18 19  1  0  0  0  0
 19 20  1  0  0  0  0
 20 21  1  0  0  0  0
 21 22  2  0  0  0  0
 21 24  1  0  0  0  0
 23 20  1  0  0  0  0
 24 25  1  0  0  0  0
 25 26  2  0  0  0  0
 27 28  1  0  0  0  0
 27 26  1  0  0  0  0
 28 29  2  0  0  0  0
 30 31  1  0  0  0  0
 30 28  1  0  0  0  0
 32 30  1  0  0  0  0
 33 32  2  0  0  0  0
 33 34  1  0  0  0  0
 34 24  2  0  0  0  0
 34 27  1  0  0  0  0
M  END
>  <MODEL>
7

>  <REMARK>
 VINA RESULT:    -5.980      3.547     10.032
 INTER + INTRA:         -10.959
 INTER:                  -9.676
 INTRA:                  -1.283
 UNBOUND:                -1.658
  Name = CHEMBL4438493
  12 active torsions:
  status: ('A' for Active; 'I' for Inactive)
    1  A    between atoms: C_1  and  O_2
    2  A    between atoms: O_2  and  C_3
    3  A    between atoms: C_5  and  C_6
    4  A    between atoms: C_6  and  N_7
    5  A    between atoms: C_8  and  C_10
    6  A    between atoms: C_10  and  C_11
    7  A    between atoms: C_11  and  C_12
    8  A    between atoms: C_12  and  C_13
    9  A    between atoms: C_13  and  N_14
   10  A    between atoms: C_15  and  C_17
   11  A    between atoms: N_23  and  C_24
   12  A    between atoms: C_30  and  O_31
                            x       y       z     vdW  Elec       q    Type
                         _______ _______ _______ _____ _____    ______ ____

>  <TORSDO>
F 10

>  <SCORE>
-5.980

>  <RMSD_LB>
3.547

>  <RMSD_UB>
10.032

$$$$
CHEMBL4438493
 OpenBabel10162523373D

 34 36  0  0  0  0  0  0  0  0999 V2000
  141.3860  136.7120  148.8990 C   0  0  0  0  0  2  0  0  0  0  0  0
  140.9170  137.6980  147.8250 C   0  0  0  0  0  2  0  0  0  0  0  0
  139.3100  136.7130  146.3040 N   0  0  0  0  0  0  0  0  0  0  0  0
  139.4640  137.4750  147.4420 C   0  0  0  0  0  0  0  0  0  0  0  0
  138.5230  137.9570  148.0590 O   0  0  0  0  0  0  0  0  0  0  0  0
  140.1090  136.3360  145.8670 H   0  0  0  0  0  0  0  0  0  0  0  0
  138.0070  136.4510  145.7350 C   0  0  0  0  0  2  0  0  0  0  0  0
  136.3660  133.0500  145.1400 C   0  0  0  0  0  0  0  0  0  0  0  0
  136.7770  134.3780  144.9730 C   0  0  0  0  0  3  0  0  0  0  0  0
  137.5480  135.0310  145.9530 C   0  0  0  0  0  0  0  0  0  0  0  0
  137.8860  134.3370  147.1220 C   0  0  0  0  0  3  0  0  0  0  0  0
  137.4770  133.0140  147.3040 C   0  0  0  0  0  3  0  0  0  0  0  0
  136.7220  132.3800  146.3180 C   0  0  0  0  0  0  0  0  0  0  0  0
  136.2430  132.0720  142.9740 C   0  0  0  0  0  1  0  0  0  0  0  0
  135.6330  132.3340  144.2300 O   0  0  0  0  0  0  0  0  0  0  0  0
  136.3250  131.0800  146.4980 O   0  0  0  0  0  0  0  0  0  0  0  0
  136.7450  130.5470  147.1450 H   0  0  0  0  0  0  0  0  0  0  0  0
  141.3600  137.2860  150.3210 C   0  0  0  0  0  2  0  0  0  0  0  0
  141.3630  138.8150  150.3400 C   0  0  0  0  0  2  0  0  0  0  0  0
  142.4940  139.3600  151.0520 N   0  0  0  0  0  0  0  0  0  0  0  0
  143.4920  140.0620  150.4040 C   0  0  0  0  0  0  0  0  0  0  0  0
  143.5130  140.2190  149.1880 O   0  0  0  0  0  0  0  0  0  0  0  0
  142.5570  139.2280  152.0260 H   0  0  0  0  0  0  0  0  0  0  0  0
  144.5070  140.6150  151.2990 C   0  0  0  0  0  0  0  0  0  0  0  0
  145.0400  141.8950  151.1620 N   0  0  0  0  0  0  0  0  0  0  0  0
  145.9140  142.0040  152.1410 C   0  0  0  0  0  3  0  0  0  0  0  0
  145.9830  140.8610  152.8960 N   0  0  0  0  0  0  0  0  0  0  0  0
  146.7880  140.5930  153.9840 C   0  0  0  0  0  0  0  0  0  0  0  0
  147.5650  141.4420  154.3910 O   0  0  0  0  0  0  0  0  0  0  0  0
  146.5630  139.3130  154.4630 N   0  0  0  0  0  0  0  0  0  0  0  0
  147.3090  138.8230  155.6030 C   0  0  0  0  0  1  0  0  0  0  0  0
  145.6570  138.4250  153.9290 N   0  0  0  0  0  0  0  0  0  0  0  0
  144.9600  138.7480  152.9390 N   0  0  0  0  0  0  0  0  0  0  0  0
  145.0900  139.9680  152.3740 C   0  0  0  0  0  0  0  0  0  0  0  0
  1 18  1  0  0  0  0
  2  1  1  0  0  0  0
  3  4  1  0  0  0  0
  4  2  1  0  0  0  0
  4  5  2  0  0  0  0
  6  3  1  0  0  0  0
  7 10  1  0  0  0  0
  7  3  1  0  0  0  0
  8 13  1  0  0  0  0
  9  8  2  0  0  0  0
  9 10  1  0  0  0  0
 10 11  2  0  0  0  0
 11 12  1  0  0  0  0
 13 16  1  0  0  0  0
 13 12  2  0  0  0  0
 14 15  1  0  0  0  0
 15  8  1  0  0  0  0
 16 17  1  0  0  0  0
 18 19  1  0  0  0  0
 19 20  1  0  0  0  0
 20 23  1  0  0  0  0
 21 20  1  0  0  0  0
 21 24  1  0  0  0  0
 22 21  2  0  0  0  0
 24 34  2  0  0  0  0
 25 24  1  0  0  0  0
 25 26  2  0  0  0  0
 26 27  1  0  0  0  0
 27 28  1  0  0  0  0
 28 29  2  0  0  0  0
 28 30  1  0  0  0  0
 30 31  1  0  0  0  0
 32 30  1  0  0  0  0
 33 32  2  0  0  0  0
 34 27  1  0  0  0  0
 34 33  1  0  0  0  0
M  END
>  <MODEL>
8

>  <REMARK>
 VINA RESULT:    -5.865      5.714     10.833
 INTER + INTRA:         -10.781
 INTER:                  -9.690
 INTRA:                  -1.091
 UNBOUND:                -1.658
  Name = CHEMBL4438493
  12 active torsions:
  status: ('A' for Active; 'I' for Inactive)
    1  A    between atoms: C_1  and  O_2
    2  A    between atoms: O_2  and  C_3
    3  A    between atoms: C_5  and  C_6
    4  A    between atoms: C_6  and  N_7
    5  A    between atoms: C_8  and  C_10
    6  A    between atoms: C_10  and  C_11
    7  A    between atoms: C_11  and  C_12
    8  A    between atoms: C_12  and  C_13
    9  A    between atoms: C_13  and  N_14
   10  A    between atoms: C_15  and  C_17
   11  A    between atoms: N_23  and  C_24
   12  A    between atoms: C_30  and  O_31
                            x       y       z     vdW  Elec       q    Type
                         _______ _______ _______ _____ _____    ______ ____

>  <TORSDO>
F 10

>  <SCORE>
-5.865

>  <RMSD_LB>
5.714

>  <RMSD_UB>
10.833

$$$$
CHEMBL4438493
 OpenBabel10162523373D

 34 36  0  0  0  0  0  0  0  0999 V2000
  137.9340  138.5260  146.9390 C   0  0  0  0  0  2  0  0  0  0  0  0
  136.4920  138.4800  147.4530 C   0  0  0  0  0  2  0  0  0  0  0  0
  137.2040  137.4990  149.5500 N   0  0  0  0  0  0  0  0  0  0  0  0
  136.2980  137.4110  148.5150 C   0  0  0  0  0  0  0  0  0  0  0  0
  135.4470  136.5330  148.4400 O   0  0  0  0  0  0  0  0  0  0  0  0
  137.8490  138.2430  149.5610 H   0  0  0  0  0  0  0  0  0  0  0  0
  137.2310  136.5270  150.6210 C   0  0  0  0  0  2  0  0  0  0  0  0
  137.3920  137.2920  154.3630 C   0  0  0  0  0  0  0  0  0  0  0  0
  136.9880  136.7780  153.1250 C   0  0  0  0  0  3  0  0  0  0  0  0
  137.6640  137.1210  151.9380 C   0  0  0  0  0  0  0  0  0  0  0  0
  138.7430  138.0100  152.0060 C   0  0  0  0  0  3  0  0  0  0  0  0
  139.1520  138.5360  153.2340 C   0  0  0  0  0  3  0  0  0  0  0  0
  138.4780  138.1760  154.4010 C   0  0  0  0  0  0  0  0  0  0  0  0
  135.8890  135.9100  155.5860 C   0  0  0  0  0  1  0  0  0  0  0  0
  136.8060  136.9950  155.5660 O   0  0  0  0  0  0  0  0  0  0  0  0
  138.8830  138.6910  155.6060 O   0  0  0  0  0  0  0  0  0  0  0  0
  138.2540  139.0640  156.1910 H   0  0  0  0  0  0  0  0  0  0  0  0
  138.3530  137.2740  146.1580 C   0  0  0  0  0  2  0  0  0  0  0  0
  139.6780  136.6890  146.6490 C   0  0  0  0  0  2  0  0  0  0  0  0
  140.3710  137.5680  147.5590 N   0  0  0  0  0  0  0  0  0  0  0  0
  140.6510  137.1950  148.8600 C   0  0  0  0  0  0  0  0  0  0  0  0
  140.2850  136.1270  149.3380 O   0  0  0  0  0  0  0  0  0  0  0  0
  140.6520  138.4590  147.2460 H   0  0  0  0  0  0  0  0  0  0  0  0
  141.4380  138.1770  149.6030 C   0  0  0  0  0  0  0  0  0  0  0  0
  141.1070  139.5280  149.6830 N   0  0  0  0  0  0  0  0  0  0  0  0
  142.0540  140.0660  150.4220 C   0  0  0  0  0  3  0  0  0  0  0  0
  142.9860  139.1390  150.8150 N   0  0  0  0  0  0  0  0  0  0  0  0
  144.1220  139.3270  151.5750 C   0  0  0  0  0  0  0  0  0  0  0  0
  144.3980  140.4390  151.9950 O   0  0  0  0  0  0  0  0  0  0  0  0
  144.8070  138.1340  151.7430 N   0  0  0  0  0  0  0  0  0  0  0  0
  146.0360  138.1050  152.5080 C   0  0  0  0  0  1  0  0  0  0  0  0
  144.4090  136.9220  151.2260 N   0  0  0  0  0  0  0  0  0  0  0  0
  143.3590  136.8360  150.5460 N   0  0  0  0  0  0  0  0  0  0  0  0
  142.6040  137.9300  150.3040 C   0  0  0  0  0  0  0  0  0  0  0  0
  1  2  1  0  0  0  0
  2  4  1  0  0  0  0
  3  6  1  0  0  0  0
  3  7  1  0  0  0  0
  4  3  1  0  0  0  0
  5  4  2  0  0  0  0
  7 10  1  0  0  0  0
  8 13  1  0  0  0  0
  8 15  1  0  0  0  0
  9  8  2  0  0  0  0
 10 11  2  0  0  0  0
 10  9  1  0  0  0  0
 11 12  1  0  0  0  0
 12 13  2  0  0  0  0
 13 16  1  0  0  0  0
 15 14  1  0  0  0  0
 16 17  1  0  0  0  0
 18 19  1  0  0  0  0
 18  1  1  0  0  0  0
 19 20  1  0  0  0  0
 20 21  1  0  0  0  0
 21 22  2  0  0  0  0
 21 24  1  0  0  0  0
 23 20  1  0  0  0  0
 24 25  1  0  0  0  0
 24 34  2  0  0  0  0
 25 26  2  0  0  0  0
 26 27  1  0  0  0  0
 27 28  1  0  0  0  0
 28 30  1  0  0  0  0
 28 29  2  0  0  0  0
 30 31  1  0  0  0  0
 32 30  1  0  0  0  0
 33 32  2  0  0  0  0
 34 33  1  0  0  0  0
 34 27  1  0  0  0  0
M  END
>  <MODEL>
9

>  <REMARK>
 VINA RESULT:    -5.626      3.391      8.717
 INTER + INTRA:         -10.409
 INTER:                  -8.751
 INTRA:                  -1.658
 UNBOUND:                -1.658
  Name = CHEMBL4438493
  12 active torsions:
  status: ('A' for Active; 'I' for Inactive)
    1  A    between atoms: C_1  and  O_2
    2  A    between atoms: O_2  and  C_3
    3  A    between atoms: C_5  and  C_6
    4  A    between atoms: C_6  and  N_7
    5  A    between atoms: C_8  and  C_10
    6  A    between atoms: C_10  and  C_11
    7  A    between atoms: C_11  and  C_12
    8  A    between atoms: C_12  and  C_13
    9  A    between atoms: C_13  and  N_14
   10  A    between atoms: C_15  and  C_17
   11  A    between atoms: N_23  and  C_24
   12  A    between atoms: C_30  and  O_31
                            x       y       z     vdW  Elec       q    Type
                         _______ _______ _______ _____ _____    ______ ____

>  <TORSDO>
F 10

>  <SCORE>
-5.626

>  <RMSD_LB>
3.391

>  <RMSD_UB>
8.717

$$$$
