CHEMBL4760188
 OpenBabel10172500503D

 22 22  0  0  0  0  0  0  0  0999 V2000
  134.1280  135.2490  154.0270 N   0  0  0  0  0  0  0  0  0  0  0  0
  135.3820  135.0790  154.2950 C   0  0  0  0  0  3  0  0  0  0  0  0
  136.0290  135.9150  155.3340 C   0  0  0  0  0  0  0  0  0  0  0  0
  135.8800  135.5700  156.6810 C   0  0  0  0  0  3  0  0  0  0  0  0
  136.4990  136.3300  157.6680 C   0  0  0  0  0  3  0  0  0  0  0  0
  137.2640  137.4450  157.3170 C   0  0  0  0  0  0  0  0  0  0  0  0
  137.4110  137.8160  155.9750 C   0  0  0  0  0  0  0  0  0  0  0  0
  136.7890  137.0350  154.9830 C   0  0  0  0  0  3  0  0  0  0  0  0
  137.8620  138.1490  158.3280 O   0  0  0  0  0  0  0  0  0  0  0  0
  138.0370  137.7320  159.1490 H   0  0  0  0  0  0  0  0  0  0  0  0
  138.1070  138.8800  155.4640 O   0  0  0  0  0  0  0  0  0  0  0  0
  139.0850  138.6210  154.4640 C   0  0  0  0  0  1  0  0  0  0  0  0
  133.5040  134.9220  151.7730 C   0  0  0  0  0  0  0  0  0  0  0  0
  133.9880  135.9850  151.3800 O   0  0  0  0  0  0  0  0  0  0  0  0
  133.5550  134.4590  153.0810 N   0  0  0  0  0  0  0  0  0  0  0  0
  133.1850  133.5790  153.3180 H   0  0  0  0  0  0  0  0  0  0  0  0
  132.7960  133.9910  150.8100 C   0  0  0  0  0  2  0  0  0  0  0  0
  133.7410  133.0520  150.0670 C   0  0  0  0  0  2  0  0  0  0  0  0
  133.8020  133.3270  148.5600 C   0  0  0  0  0  2  0  0  0  0  0  0
  132.7780  134.3930  148.1600 C   0  0  0  0  0  2  0  0  0  0  0  0
  132.5790  136.8550  147.6610 C   0  0  0  0  0  1  0  0  0  0  0  0
  133.4440  135.6100  147.5190 C   0  0  0  0  0  2  0  0  0  0  0  0
  1  2  2  0  0  0  0
  2  3  1  0  0  0  0
  3  4  1  0  0  0  0
  4  5  2  0  0  0  0
  6  5  1  0  0  0  0
  6  9  1  0  0  0  0
  7  6  2  0  0  0  0
  8  3  2  0  0  0  0
  8  7  1  0  0  0  0
  9 10  1  0  0  0  0
 11  7  1  0  0  0  0
 12 11  1  0  0  0  0
 13 15  1  0  0  0  0
 14 13  2  0  0  0  0
 15 16  1  0  0  0  0
 15  1  1  0  0  0  0
 17 13  1  0  0  0  0
 18 17  1  0  0  0  0
 19 18  1  0  0  0  0
 20 19  1  0  0  0  0
 22 21  1  0  0  0  0
 22 20  1  0  0  0  0
M  END
>  <MODEL>
1

>  <REMARK>
 VINA RESULT:    -6.386      0.000      0.000
 INTER + INTRA:         -10.046
 INTER:                  -9.494
 INTRA:                  -0.553
 UNBOUND:                -0.486
  Name = CHEMBL4760188
  11 active torsions:
  status: ('A' for Active; 'I' for Inactive)
    1  A    between atoms: C_1  and  C_2
    2  A    between atoms: C_2  and  C_3
    3  A    between atoms: C_3  and  C_4
    4  A    between atoms: C_4  and  C_5
    5  A    between atoms: C_5  and  C_6
    6  A    between atoms: C_6  and  C_7
    7  A    between atoms: N_9  and  N_10
    8  A    between atoms: C_11  and  C_12
    9  A    between atoms: C_15  and  O_16
   10  A    between atoms: C_17  and  O_18
   11  A    between atoms: O_18  and  C_19
                            x       y       z     vdW  Elec       q    Type
                         _______ _______ _______ _____ _____    ______ ____

>  <TORSDO>
F 9

>  <SCORE>
-6.386

>  <RMSD_LB>
0.000

>  <RMSD_UB>
0.000

$$$$
CHEMBL4760188
 OpenBabel10172500503D

 22 22  0  0  0  0  0  0  0  0999 V2000
  134.1830  135.2640  153.8800 N   0  0  0  0  0  0  0  0  0  0  0  0
  135.0150  134.7520  154.7290 C   0  0  0  0  0  3  0  0  0  0  0  0
  135.6880  135.6300  155.7150 C   0  0  0  0  0  0  0  0  0  0  0  0
  136.4560  136.7070  155.2630 C   0  0  0  0  0  3  0  0  0  0  0  0
  137.0760  137.5540  156.1750 C   0  0  0  0  0  3  0  0  0  0  0  0
  136.9390  137.3270  157.5480 C   0  0  0  0  0  0  0  0  0  0  0  0
  136.1870  136.2440  158.0190 C   0  0  0  0  0  0  0  0  0  0  0  0
  135.5560  135.3990  157.0880 C   0  0  0  0  0  3  0  0  0  0  0  0
  137.5590  138.2000  158.4000 O   0  0  0  0  0  0  0  0  0  0  0  0
  138.1720  137.8810  159.0330 H   0  0  0  0  0  0  0  0  0  0  0  0
  135.9660  135.8740  159.3200 O   0  0  0  0  0  0  0  0  0  0  0  0
  134.6540  136.0340  159.8470 C   0  0  0  0  0  1  0  0  0  0  0  0
  133.7860  134.6310  151.6410 C   0  0  0  0  0  0  0  0  0  0  0  0
  134.5460  135.4760  151.1620 O   0  0  0  0  0  0  0  0  0  0  0  0
  133.5670  134.4350  152.9970 N   0  0  0  0  0  0  0  0  0  0  0  0
  132.9790  133.7120  153.3130 H   0  0  0  0  0  0  0  0  0  0  0  0
  133.0100  133.6910  150.7420 C   0  0  0  0  0  2  0  0  0  0  0  0
  133.8580  133.0660  149.6390 C   0  0  0  0  0  2  0  0  0  0  0  0
  133.2750  133.2780  148.2360 C   0  0  0  0  0  2  0  0  0  0  0  0
  133.7590  134.6040  147.6420 C   0  0  0  0  0  2  0  0  0  0  0  0
  133.1950  136.9840  148.2490 C   0  0  0  0  0  1  0  0  0  0  0  0
  132.6690  135.6750  147.6770 C   0  0  0  0  0  2  0  0  0  0  0  0
  1  2  2  0  0  0  0
  2  3  1  0  0  0  0
  3  8  1  0  0  0  0
  4  3  2  0  0  0  0
  4  5  1  0  0  0  0
  5  6  2  0  0  0  0
  6  7  1  0  0  0  0
  6  9  1  0  0  0  0
  7 11  1  0  0  0  0
  8  7  2  0  0  0  0
  9 10  1  0  0  0  0
 11 12  1  0  0  0  0
 13 15  1  0  0  0  0
 14 13  2  0  0  0  0
 15 16  1  0  0  0  0
 15  1  1  0  0  0  0
 17 13  1  0  0  0  0
 18 17  1  0  0  0  0
 19 18  1  0  0  0  0
 20 22  1  0  0  0  0
 20 19  1  0  0  0  0
 22 21  1  0  0  0  0
M  END
>  <MODEL>
2

>  <REMARK>
 VINA RESULT:    -6.269      1.099      2.382
 INTER + INTRA:          -9.870
 INTER:                  -9.214
 INTRA:                  -0.656
 UNBOUND:                -0.486
  Name = CHEMBL4760188
  11 active torsions:
  status: ('A' for Active; 'I' for Inactive)
    1  A    between atoms: C_1  and  C_2
    2  A    between atoms: C_2  and  C_3
    3  A    between atoms: C_3  and  C_4
    4  A    between atoms: C_4  and  C_5
    5  A    between atoms: C_5  and  C_6
    6  A    between atoms: C_6  and  C_7
    7  A    between atoms: N_9  and  N_10
    8  A    between atoms: C_11  and  C_12
    9  A    between atoms: C_15  and  O_16
   10  A    between atoms: C_17  and  O_18
   11  A    between atoms: O_18  and  C_19
                            x       y       z     vdW  Elec       q    Type
                         _______ _______ _______ _____ _____    ______ ____

>  <TORSDO>
F 9

>  <SCORE>
-6.269

>  <RMSD_LB>
1.099

>  <RMSD_UB>
2.382

$$$$
CHEMBL4760188
 OpenBabel10172500503D

 22 22  0  0  0  0  0  0  0  0999 V2000
  134.1310  135.0890  152.2990 N   0  0  0  0  0  0  0  0  0  0  0  0
  134.9650  134.8160  151.3480 C   0  0  0  0  0  3  0  0  0  0  0  0
  134.4540  134.3520  150.0360 C   0  0  0  0  0  0  0  0  0  0  0  0
  134.3350  132.9810  149.7940 C   0  0  0  0  0  3  0  0  0  0  0  0
  133.8360  132.5280  148.5760 C   0  0  0  0  0  3  0  0  0  0  0  0
  133.4600  133.4430  147.5890 C   0  0  0  0  0  0  0  0  0  0  0  0
  133.5880  134.8200  147.8080 C   0  0  0  0  0  0  0  0  0  0  0  0
  134.0850  135.2680  149.0460 C   0  0  0  0  0  3  0  0  0  0  0  0
  132.9630  132.9430  146.4160 O   0  0  0  0  0  0  0  0  0  0  0  0
  132.0610  133.0700  146.1980 H   0  0  0  0  0  0  0  0  0  0  0  0
  133.2830  135.8430  146.9480 O   0  0  0  0  0  0  0  0  0  0  0  0
  132.5070  136.9260  147.4470 C   0  0  0  0  0  1  0  0  0  0  0  0
  134.6430  134.6500  154.5610 C   0  0  0  0  0  0  0  0  0  0  0  0
  134.2930  133.4690  154.5160 O   0  0  0  0  0  0  0  0  0  0  0  0
  134.6230  135.5280  153.4860 N   0  0  0  0  0  0  0  0  0  0  0  0
  134.9580  136.4490  153.5820 H   0  0  0  0  0  0  0  0  0  0  0  0
  135.1580  135.2550  155.8510 C   0  0  0  0  0  2  0  0  0  0  0  0
  136.5920  135.7660  155.7520 C   0  0  0  0  0  2  0  0  0  0  0  0
  137.1940  136.1410  157.1120 C   0  0  0  0  0  2  0  0  0  0  0  0
  136.1280  136.0880  158.2100 C   0  0  0  0  0  2  0  0  0  0  0  0
  137.5850  137.8370  159.2920 C   0  0  0  0  0  1  0  0  0  0  0  0
  136.1620  137.3330  159.0970 C   0  0  0  0  0  2  0  0  0  0  0  0
  1 15  1  0  0  0  0
  2  1  2  0  0  0  0
  3  2  1  0  0  0  0
  4  3  1  0  0  0  0
  5  4  2  0  0  0  0
  6  7  2  0  0  0  0
  6  5  1  0  0  0  0
  7  8  1  0  0  0  0
  8  3  2  0  0  0  0
  9  6  1  0  0  0  0
 10  9  1  0  0  0  0
 11 12  1  0  0  0  0
 11  7  1  0  0  0  0
 13 17  1  0  0  0  0
 14 13  2  0  0  0  0
 15 16  1  0  0  0  0
 15 13  1  0  0  0  0
 18 17  1  0  0  0  0
 18 19  1  0  0  0  0
 19 20  1  0  0  0  0
 20 22  1  0  0  0  0
 22 21  1  0  0  0  0
M  END
>  <MODEL>
3

>  <REMARK>
 VINA RESULT:    -6.257      2.720      8.608
 INTER + INTRA:          -9.853
 INTER:                  -9.387
 INTRA:                  -0.466
 UNBOUND:                -0.486
  Name = CHEMBL4760188
  11 active torsions:
  status: ('A' for Active; 'I' for Inactive)
    1  A    between atoms: C_1  and  C_2
    2  A    between atoms: C_2  and  C_3
    3  A    between atoms: C_3  and  C_4
    4  A    between atoms: C_4  and  C_5
    5  A    between atoms: C_5  and  C_6
    6  A    between atoms: C_6  and  C_7
    7  A    between atoms: N_9  and  N_10
    8  A    between atoms: C_11  and  C_12
    9  A    between atoms: C_15  and  O_16
   10  A    between atoms: C_17  and  O_18
   11  A    between atoms: O_18  and  C_19
                            x       y       z     vdW  Elec       q    Type
                         _______ _______ _______ _____ _____    ______ ____

>  <TORSDO>
F 9

>  <SCORE>
-6.257

>  <RMSD_LB>
2.720

>  <RMSD_UB>
8.608

$$$$
CHEMBL4760188
 OpenBabel10172500503D

 22 22  0  0  0  0  0  0  0  0999 V2000
  136.4670  136.7140  154.1650 N   0  0  0  0  0  0  0  0  0  0  0  0
  136.8000  135.9050  155.1170 C   0  0  0  0  0  3  0  0  0  0  0  0
  136.9810  136.4280  156.4930 C   0  0  0  0  0  0  0  0  0  0  0  0
  138.0760  137.2500  156.7740 C   0  0  0  0  0  3  0  0  0  0  0  0
  138.2490  137.7680  158.0540 C   0  0  0  0  0  3  0  0  0  0  0  0
  137.3330  137.4610  159.0640 C   0  0  0  0  0  0  0  0  0  0  0  0
  136.2390  136.6260  158.8040 C   0  0  0  0  0  0  0  0  0  0  0  0
  136.0680  136.1150  157.5040 C   0  0  0  0  0  3  0  0  0  0  0  0
  137.5440  138.0090  160.3010 O   0  0  0  0  0  0  0  0  0  0  0  0
  137.7010  138.9290  160.3840 H   0  0  0  0  0  0  0  0  0  0  0  0
  135.2650  136.2170  159.6770 O   0  0  0  0  0  0  0  0  0  0  0  0
  134.4910  135.0760  159.3260 C   0  0  0  0  0  1  0  0  0  0  0  0
  134.9970  136.0630  152.4370 C   0  0  0  0  0  0  0  0  0  0  0  0
  133.9770  136.4090  153.0370 O   0  0  0  0  0  0  0  0  0  0  0  0
  136.2910  136.2070  152.9170 N   0  0  0  0  0  0  0  0  0  0  0  0
  137.0640  135.9480  152.3650 H   0  0  0  0  0  0  0  0  0  0  0  0
  134.9080  135.4380  151.0590 C   0  0  0  0  0  2  0  0  0  0  0  0
  135.0150  133.9160  151.0750 C   0  0  0  0  0  2  0  0  0  0  0  0
  133.6620  133.2150  150.9020 C   0  0  0  0  0  2  0  0  0  0  0  0
  132.7140  134.0660  150.0520 C   0  0  0  0  0  2  0  0  0  0  0  0
  133.4380  134.4750  147.6730 C   0  0  0  0  0  1  0  0  0  0  0  0
  132.6450  133.5720  148.6070 C   0  0  0  0  0  2  0  0  0  0  0  0
  1  2  2  0  0  0  0
  2  3  1  0  0  0  0
  3  4  2  0  0  0  0
  3  8  1  0  0  0  0
  4  5  1  0  0  0  0
  5  6  2  0  0  0  0
  6  9  1  0  0  0  0
  7  6  1  0  0  0  0
  7 11  1  0  0  0  0
  8  7  2  0  0  0  0
  9 10  1  0  0  0  0
 12 11  1  0  0  0  0
 13 15  1  0  0  0  0
 13 14  2  0  0  0  0
 15  1  1  0  0  0  0
 16 15  1  0  0  0  0
 17 18  1  0  0  0  0
 17 13  1  0  0  0  0
 19 18  1  0  0  0  0
 20 19  1  0  0  0  0
 21 22  1  0  0  0  0
 22 20  1  0  0  0  0
M  END
>  <MODEL>
4

>  <REMARK>
 VINA RESULT:    -6.147      1.998      3.093
 INTER + INTRA:          -9.687
 INTER:                  -9.066
 INTRA:                  -0.622
 UNBOUND:                -0.486
  Name = CHEMBL4760188
  11 active torsions:
  status: ('A' for Active; 'I' for Inactive)
    1  A    between atoms: C_1  and  C_2
    2  A    between atoms: C_2  and  C_3
    3  A    between atoms: C_3  and  C_4
    4  A    between atoms: C_4  and  C_5
    5  A    between atoms: C_5  and  C_6
    6  A    between atoms: C_6  and  C_7
    7  A    between atoms: N_9  and  N_10
    8  A    between atoms: C_11  and  C_12
    9  A    between atoms: C_15  and  O_16
   10  A    between atoms: C_17  and  O_18
   11  A    between atoms: O_18  and  C_19
                            x       y       z     vdW  Elec       q    Type
                         _______ _______ _______ _____ _____    ______ ____

>  <TORSDO>
F 9

>  <SCORE>
-6.147

>  <RMSD_LB>
1.998

>  <RMSD_UB>
3.093

$$$$
CHEMBL4760188
 OpenBabel10172500503D

 22 22  0  0  0  0  0  0  0  0999 V2000
  143.1810  139.3240  153.6120 N   0  0  0  0  0  0  0  0  0  0  0  0
  142.4030  138.9020  152.6680 C   0  0  0  0  0  3  0  0  0  0  0  0
  141.0030  138.5320  152.9840 C   0  0  0  0  0  0  0  0  0  0  0  0
  140.1670  138.0760  151.9600 C   0  0  0  0  0  3  0  0  0  0  0  0
  138.8570  137.7040  152.2430 C   0  0  0  0  0  3  0  0  0  0  0  0
  138.3690  137.7920  153.5490 C   0  0  0  0  0  0  0  0  0  0  0  0
  139.1860  138.2630  154.5850 C   0  0  0  0  0  0  0  0  0  0  0  0
  140.5130  138.6280  154.2900 C   0  0  0  0  0  3  0  0  0  0  0  0
  137.0770  137.4000  153.7730 O   0  0  0  0  0  0  0  0  0  0  0  0
  136.8690  136.4890  153.8340 H   0  0  0  0  0  0  0  0  0  0  0  0
  138.8640  138.4250  155.9070 O   0  0  0  0  0  0  0  0  0  0  0  0
  139.4100  137.5060  156.8450 C   0  0  0  0  0  1  0  0  0  0  0  0
  145.4330  139.5760  154.2750 C   0  0  0  0  0  0  0  0  0  0  0  0
  145.2500  139.1460  155.4150 O   0  0  0  0  0  0  0  0  0  0  0  0
  144.4550  139.6720  153.2940 N   0  0  0  0  0  0  0  0  0  0  0  0
  144.6800  139.9850  152.3880 H   0  0  0  0  0  0  0  0  0  0  0  0
  146.8060  140.0400  153.8340 C   0  0  0  0  0  2  0  0  0  0  0  0
  146.9810  141.5540  153.8880 C   0  0  0  0  0  2  0  0  0  0  0  0
  148.2540  142.0390  153.1830 C   0  0  0  0  0  2  0  0  0  0  0  0
  148.0970  141.9600  151.6620 C   0  0  0  0  0  2  0  0  0  0  0  0
  146.6530  142.5860  149.6930 C   0  0  0  0  0  1  0  0  0  0  0  0
  146.7170  142.4350  151.2060 C   0  0  0  0  0  2  0  0  0  0  0  0
  2  3  1  0  0  0  0
  2  1  2  0  0  0  0
  3  8  1  0  0  0  0
  4  5  1  0  0  0  0
  4  3  2  0  0  0  0
  5  6  2  0  0  0  0
  6  9  1  0  0  0  0
  6  7  1  0  0  0  0
  7 11  1  0  0  0  0
  8  7  2  0  0  0  0
  9 10  1  0  0  0  0
 11 12  1  0  0  0  0
 13 14  2  0  0  0  0
 15  1  1  0  0  0  0
 15 13  1  0  0  0  0
 16 15  1  0  0  0  0
 17 18  1  0  0  0  0
 17 13  1  0  0  0  0
 19 18  1  0  0  0  0
 20 19  1  0  0  0  0
 21 22  1  0  0  0  0
 22 20  1  0  0  0  0
M  END
>  <MODEL>
5

>  <REMARK>
 VINA RESULT:    -6.146      6.625     10.975
 INTER + INTRA:          -9.687
 INTER:                  -9.228
 INTRA:                  -0.458
 UNBOUND:                -0.486
  Name = CHEMBL4760188
  11 active torsions:
  status: ('A' for Active; 'I' for Inactive)
    1  A    between atoms: C_1  and  C_2
    2  A    between atoms: C_2  and  C_3
    3  A    between atoms: C_3  and  C_4
    4  A    between atoms: C_4  and  C_5
    5  A    between atoms: C_5  and  C_6
    6  A    between atoms: C_6  and  C_7
    7  A    between atoms: N_9  and  N_10
    8  A    between atoms: C_11  and  C_12
    9  A    between atoms: C_15  and  O_16
   10  A    between atoms: C_17  and  O_18
   11  A    between atoms: O_18  and  C_19
                            x       y       z     vdW  Elec       q    Type
                         _______ _______ _______ _____ _____    ______ ____

>  <TORSDO>
F 9

>  <SCORE>
-6.146

>  <RMSD_LB>
6.625

>  <RMSD_UB>
10.975

$$$$
CHEMBL4760188
 OpenBabel10172500503D

 22 22  0  0  0  0  0  0  0  0999 V2000
  135.2290  134.5070  152.9040 N   0  0  0  0  0  0  0  0  0  0  0  0
  135.6790  134.5040  151.6920 C   0  0  0  0  0  3  0  0  0  0  0  0
  134.7620  134.1860  150.5710 C   0  0  0  0  0  0  0  0  0  0  0  0
  133.4160  133.9240  150.8400 C   0  0  0  0  0  3  0  0  0  0  0  0
  132.5380  133.6460  149.7980 C   0  0  0  0  0  3  0  0  0  0  0  0
  132.9990  133.6190  148.4790 C   0  0  0  0  0  0  0  0  0  0  0  0
  134.3480  133.8620  148.1920 C   0  0  0  0  0  0  0  0  0  0  0  0
  135.2270  134.1520  149.2520 C   0  0  0  0  0  3  0  0  0  0  0  0
  132.0890  133.3530  147.4920 O   0  0  0  0  0  0  0  0  0  0  0  0
  131.8760  132.4660  147.2780 H   0  0  0  0  0  0  0  0  0  0  0  0
  134.9640  133.8590  146.9680 O   0  0  0  0  0  0  0  0  0  0  0  0
  135.9460  132.8620  146.7160 C   0  0  0  0  0  1  0  0  0  0  0  0
  135.8350  135.9560  154.6660 C   0  0  0  0  0  0  0  0  0  0  0  0
  134.8570  136.6940  154.5300 O   0  0  0  0  0  0  0  0  0  0  0  0
  136.0850  134.8180  153.9120 N   0  0  0  0  0  0  0  0  0  0  0  0
  136.8650  134.2490  154.1030 H   0  0  0  0  0  0  0  0  0  0  0  0
  136.8790  136.2440  155.7260 C   0  0  0  0  0  2  0  0  0  0  0  0
  137.3060  137.7070  155.7780 C   0  0  0  0  0  2  0  0  0  0  0  0
  138.7190  137.9430  155.2320 C   0  0  0  0  0  2  0  0  0  0  0  0
  138.6720  138.7520  153.9330 C   0  0  0  0  0  2  0  0  0  0  0  0
  137.9910  137.4730  151.8710 C   0  0  0  0  0  1  0  0  0  0  0  0
  139.1560  137.9360  152.7340 C   0  0  0  0  0  2  0  0  0  0  0  0
  1 15  1  0  0  0  0
  2  1  2  0  0  0  0
  3  4  1  0  0  0  0
  3  2  1  0  0  0  0
  5  4  2  0  0  0  0
  6  5  1  0  0  0  0
  7  6  2  0  0  0  0
  7  8  1  0  0  0  0
  8  3  2  0  0  0  0
  9  6  1  0  0  0  0
 10  9  1  0  0  0  0
 11  7  1  0  0  0  0
 12 11  1  0  0  0  0
 13 17  1  0  0  0  0
 14 13  2  0  0  0  0
 15 16  1  0  0  0  0
 15 13  1  0  0  0  0
 17 18  1  0  0  0  0
 19 18  1  0  0  0  0
 20 19  1  0  0  0  0
 21 22  1  0  0  0  0
 22 20  1  0  0  0  0
M  END
>  <MODEL>
6

>  <REMARK>
 VINA RESULT:    -6.007      2.307      7.827
 INTER + INTRA:          -9.478
 INTER:                  -8.707
 INTRA:                  -0.770
 UNBOUND:                -0.486
  Name = CHEMBL4760188
  11 active torsions:
  status: ('A' for Active; 'I' for Inactive)
    1  A    between atoms: C_1  and  C_2
    2  A    between atoms: C_2  and  C_3
    3  A    between atoms: C_3  and  C_4
    4  A    between atoms: C_4  and  C_5
    5  A    between atoms: C_5  and  C_6
    6  A    between atoms: C_6  and  C_7
    7  A    between atoms: N_9  and  N_10
    8  A    between atoms: C_11  and  C_12
    9  A    between atoms: C_15  and  O_16
   10  A    between atoms: C_17  and  O_18
   11  A    between atoms: O_18  and  C_19
                            x       y       z     vdW  Elec       q    Type
                         _______ _______ _______ _____ _____    ______ ____

>  <TORSDO>
F 9

>  <SCORE>
-6.007

>  <RMSD_LB>
2.307

>  <RMSD_UB>
7.827

$$$$
CHEMBL4760188
 OpenBabel10172500503D

 22 22  0  0  0  0  0  0  0  0999 V2000
  143.9170  137.4400  154.1540 N   0  0  0  0  0  0  0  0  0  0  0  0
  143.0990  137.7060  153.1880 C   0  0  0  0  0  3  0  0  0  0  0  0
  141.6840  138.0260  153.4940 C   0  0  0  0  0  0  0  0  0  0  0  0
  141.3090  138.2750  154.8180 C   0  0  0  0  0  3  0  0  0  0  0  0
  139.9910  138.5990  155.1200 C   0  0  0  0  0  3  0  0  0  0  0  0
  139.0350  138.6690  154.1030 C   0  0  0  0  0  0  0  0  0  0  0  0
  139.3880  138.4060  152.7730 C   0  0  0  0  0  0  0  0  0  0  0  0
  140.7270  138.0880  152.4770 C   0  0  0  0  0  3  0  0  0  0  0  0
  137.7560  139.0050  154.4550 O   0  0  0  0  0  0  0  0  0  0  0  0
  137.3760  138.6500  155.2340 H   0  0  0  0  0  0  0  0  0  0  0  0
  138.5790  138.4150  151.6670 O   0  0  0  0  0  0  0  0  0  0  0  0
  137.9930  137.1850  151.2580 C   0  0  0  0  0  1  0  0  0  0  0  0
  146.2090  137.9370  154.4310 C   0  0  0  0  0  0  0  0  0  0  0  0
  146.0180  138.8310  155.2580 O   0  0  0  0  0  0  0  0  0  0  0  0
  145.2120  137.1660  153.8480 N   0  0  0  0  0  0  0  0  0  0  0  0
  145.4390  136.4380  153.2250 H   0  0  0  0  0  0  0  0  0  0  0  0
  147.6120  137.5860  153.9810 C   0  0  0  0  0  2  0  0  0  0  0  0
  148.4550  138.8040  153.6170 C   0  0  0  0  0  2  0  0  0  0  0  0
  147.9390  139.5470  152.3790 C   0  0  0  0  0  2  0  0  0  0  0  0
  148.4010  141.0070  152.3900 C   0  0  0  0  0  2  0  0  0  0  0  0
  146.5450  142.0650  153.7270 C   0  0  0  0  0  1  0  0  0  0  0  0
  147.2210  141.9790  152.3650 C   0  0  0  0  0  2  0  0  0  0  0  0
  2  3  1  0  0  0  0
  2  1  2  0  0  0  0
  3  4  1  0  0  0  0
  4  5  2  0  0  0  0
  6  9  1  0  0  0  0
  6  5  1  0  0  0  0
  7  6  2  0  0  0  0
  8  7  1  0  0  0  0
  8  3  2  0  0  0  0
  9 10  1  0  0  0  0
 11  7  1  0  0  0  0
 12 11  1  0  0  0  0
 13 14  2  0  0  0  0
 15  1  1  0  0  0  0
 15 13  1  0  0  0  0
 16 15  1  0  0  0  0
 17 13  1  0  0  0  0
 18 17  1  0  0  0  0
 19 20  1  0  0  0  0
 19 18  1  0  0  0  0
 22 20  1  0  0  0  0
 22 21  1  0  0  0  0
M  END
>  <MODEL>
7

>  <REMARK>
 VINA RESULT:    -5.966      6.733     11.033
 INTER + INTRA:          -9.416
 INTER:                  -8.792
 INTRA:                  -0.624
 UNBOUND:                -0.486
  Name = CHEMBL4760188
  11 active torsions:
  status: ('A' for Active; 'I' for Inactive)
    1  A    between atoms: C_1  and  C_2
    2  A    between atoms: C_2  and  C_3
    3  A    between atoms: C_3  and  C_4
    4  A    between atoms: C_4  and  C_5
    5  A    between atoms: C_5  and  C_6
    6  A    between atoms: C_6  and  C_7
    7  A    between atoms: N_9  and  N_10
    8  A    between atoms: C_11  and  C_12
    9  A    between atoms: C_15  and  O_16
   10  A    between atoms: C_17  and  O_18
   11  A    between atoms: O_18  and  C_19
                            x       y       z     vdW  Elec       q    Type
                         _______ _______ _______ _____ _____    ______ ____

>  <TORSDO>
F 9

>  <SCORE>
-5.966

>  <RMSD_LB>
6.733

>  <RMSD_UB>
11.033

$$$$
CHEMBL4760188
 OpenBabel10172500503D

 22 22  0  0  0  0  0  0  0  0999 V2000
  144.3400  139.6670  152.2650 N   0  0  0  0  0  0  0  0  0  0  0  0
  144.7590  140.7750  151.7460 C   0  0  0  0  0  3  0  0  0  0  0  0
  146.1750  141.1750  151.9190 C   0  0  0  0  0  0  0  0  0  0  0  0
  146.7820  141.9820  150.9520 C   0  0  0  0  0  3  0  0  0  0  0  0
  148.1040  142.3850  151.1100 C   0  0  0  0  0  3  0  0  0  0  0  0
  148.8330  141.9780  152.2310 C   0  0  0  0  0  0  0  0  0  0  0  0
  148.2470  141.1560  153.2010 C   0  0  0  0  0  0  0  0  0  0  0  0
  146.9060  140.7620  153.0380 C   0  0  0  0  0  3  0  0  0  0  0  0
  150.1250  142.4160  152.3420 O   0  0  0  0  0  0  0  0  0  0  0  0
  150.7980  142.0210  151.8230 H   0  0  0  0  0  0  0  0  0  0  0  0
  148.8190  140.6580  154.3430 O   0  0  0  0  0  0  0  0  0  0  0  0
  148.3510  139.4090  154.8340 C   0  0  0  0  0  1  0  0  0  0  0  0
  142.5870  138.1330  152.6470 C   0  0  0  0  0  0  0  0  0  0  0  0
  143.2590  137.3870  153.3620 O   0  0  0  0  0  0  0  0  0  0  0  0
  143.0410  139.3150  152.0790 N   0  0  0  0  0  0  0  0  0  0  0  0
  142.4360  139.8850  151.5520 H   0  0  0  0  0  0  0  0  0  0  0  0
  141.1410  137.8050  152.3330 C   0  0  0  0  0  2  0  0  0  0  0  0
  140.1480  138.7890  152.9440 C   0  0  0  0  0  2  0  0  0  0  0  0
  140.1480  138.7710  154.4770 C   0  0  0  0  0  2  0  0  0  0  0  0
  138.9230  138.0250  155.0120 C   0  0  0  0  0  2  0  0  0  0  0  0
  138.0690  136.3540  156.6940 C   0  0  0  0  0  1  0  0  0  0  0  0
  139.2530  137.2070  156.2590 C   0  0  0  0  0  2  0  0  0  0  0  0
  2  3  1  0  0  0  0
  2  1  2  0  0  0  0
  3  8  1  0  0  0  0
  4  5  1  0  0  0  0
  4  3  2  0  0  0  0
  5  6  2  0  0  0  0
  6  9  1  0  0  0  0
  6  7  1  0  0  0  0
  7 11  1  0  0  0  0
  8  7  2  0  0  0  0
 10  9  1  0  0  0  0
 11 12  1  0  0  0  0
 13 14  2  0  0  0  0
 15  1  1  0  0  0  0
 15 13  1  0  0  0  0
 16 15  1  0  0  0  0
 17 13  1  0  0  0  0
 17 18  1  0  0  0  0
 18 19  1  0  0  0  0
 19 20  1  0  0  0  0
 20 22  1  0  0  0  0
 22 21  1  0  0  0  0
M  END
>  <MODEL>
8

>  <REMARK>
 VINA RESULT:    -5.818      7.865     11.283
 INTER + INTRA:          -9.196
 INTER:                  -8.743
 INTRA:                  -0.453
 UNBOUND:                -0.486
  Name = CHEMBL4760188
  11 active torsions:
  status: ('A' for Active; 'I' for Inactive)
    1  A    between atoms: C_1  and  C_2
    2  A    between atoms: C_2  and  C_3
    3  A    between atoms: C_3  and  C_4
    4  A    between atoms: C_4  and  C_5
    5  A    between atoms: C_5  and  C_6
    6  A    between atoms: C_6  and  C_7
    7  A    between atoms: N_9  and  N_10
    8  A    between atoms: C_11  and  C_12
    9  A    between atoms: C_15  and  O_16
   10  A    between atoms: C_17  and  O_18
   11  A    between atoms: O_18  and  C_19
                            x       y       z     vdW  Elec       q    Type
                         _______ _______ _______ _____ _____    ______ ____

>  <TORSDO>
F 9

>  <SCORE>
-5.818

>  <RMSD_LB>
7.865

>  <RMSD_UB>
11.283

$$$$
CHEMBL4760188
 OpenBabel10172500503D

 22 22  0  0  0  0  0  0  0  0999 V2000
  142.4930  139.1110  151.1450 N   0  0  0  0  0  0  0  0  0  0  0  0
  142.3200  138.3540  152.1800 C   0  0  0  0  0  3  0  0  0  0  0  0
  140.9630  138.1950  152.7530 C   0  0  0  0  0  0  0  0  0  0  0  0
  139.8850  137.9380  151.9010 C   0  0  0  0  0  3  0  0  0  0  0  0
  138.6080  137.7640  152.4240 C   0  0  0  0  0  3  0  0  0  0  0  0
  138.3960  137.8530  153.8020 C   0  0  0  0  0  0  0  0  0  0  0  0
  139.4610  138.1260  154.6700 C   0  0  0  0  0  0  0  0  0  0  0  0
  140.7510  138.2920  154.1320 C   0  0  0  0  0  3  0  0  0  0  0  0
  137.1220  137.6600  154.2630 O   0  0  0  0  0  0  0  0  0  0  0  0
  136.3900  137.8680  153.7170 H   0  0  0  0  0  0  0  0  0  0  0  0
  139.4250  138.2610  156.0340 O   0  0  0  0  0  0  0  0  0  0  0  0
  140.3420  137.4950  156.8050 C   0  0  0  0  0  1  0  0  0  0  0  0
  143.8800  139.4790  149.2710 C   0  0  0  0  0  0  0  0  0  0  0  0
  142.9460  139.6620  148.4890 O   0  0  0  0  0  0  0  0  0  0  0  0
  143.7440  139.2260  150.6290 N   0  0  0  0  0  0  0  0  0  0  0  0
  144.5370  139.1330  151.2050 H   0  0  0  0  0  0  0  0  0  0  0  0
  145.3150  139.5340  148.7880 C   0  0  0  0  0  2  0  0  0  0  0  0
  146.2260  140.3710  149.6810 C   0  0  0  0  0  2  0  0  0  0  0  0
  146.4490  141.7930  149.1520 C   0  0  0  0  0  2  0  0  0  0  0  0
  147.0580  142.6870  150.2360 C   0  0  0  0  0  2  0  0  0  0  0  0
  148.9170  142.0130  151.7990 C   0  0  0  0  0  1  0  0  0  0  0  0
  147.4320  141.8910  151.4860 C   0  0  0  0  0  2  0  0  0  0  0  0
  1  2  2  0  0  0  0
  2  3  1  0  0  0  0
  3  8  1  0  0  0  0
  4  5  1  0  0  0  0
  4  3  2  0  0  0  0
  5  6  2  0  0  0  0
  6  9  1  0  0  0  0
  6  7  1  0  0  0  0
  7 11  1  0  0  0  0
  8  7  2  0  0  0  0
 10  9  1  0  0  0  0
 11 12  1  0  0  0  0
 13 15  1  0  0  0  0
 14 13  2  0  0  0  0
 15  1  1  0  0  0  0
 15 16  1  0  0  0  0
 17 13  1  0  0  0  0
 17 18  1  0  0  0  0
 19 18  1  0  0  0  0
 19 20  1  0  0  0  0
 20 22  1  0  0  0  0
 22 21  1  0  0  0  0
M  END
>  <MODEL>
9

>  <REMARK>
 VINA RESULT:    -5.718      6.837     10.436
 INTER + INTRA:          -9.046
 INTER:                  -8.560
 INTRA:                  -0.486
 UNBOUND:                -0.486
  Name = CHEMBL4760188
  11 active torsions:
  status: ('A' for Active; 'I' for Inactive)
    1  A    between atoms: C_1  and  C_2
    2  A    between atoms: C_2  and  C_3
    3  A    between atoms: C_3  and  C_4
    4  A    between atoms: C_4  and  C_5
    5  A    between atoms: C_5  and  C_6
    6  A    between atoms: C_6  and  C_7
    7  A    between atoms: N_9  and  N_10
    8  A    between atoms: C_11  and  C_12
    9  A    between atoms: C_15  and  O_16
   10  A    between atoms: C_17  and  O_18
   11  A    between atoms: O_18  and  C_19
                            x       y       z     vdW  Elec       q    Type
                         _______ _______ _______ _____ _____    ______ ____

>  <TORSDO>
F 9

>  <SCORE>
-5.718

>  <RMSD_LB>
6.837

>  <RMSD_UB>
10.436

$$$$
