CHEMBL4226582
 OpenBabel10172500533D

 30 30  0  0  0  0  0  0  0  0999 V2000
  140.4440  138.6270  153.9240 C   0  0  0  0  0  2  0  0  0  0  0  0
  139.5600  138.1580  155.0770 C   0  0  0  0  0  0  0  0  0  0  0  0
  139.9410  138.2020  156.2450 O   0  0  0  0  0  0  0  0  0  0  0  0
  138.2950  137.7550  154.7100 N   0  0  0  0  0  0  0  0  0  0  0  0
  138.0620  137.7200  153.7540 H   0  0  0  0  0  0  0  0  0  0  0  0
  137.2980  137.3830  155.6890 C   0  0  0  0  0  2  0  0  0  0  0  0
  136.3940  136.2830  155.1950 C   0  0  0  0  0  0  0  0  0  0  0  0
  136.3660  135.9530  153.8350 C   0  0  0  0  0  3  0  0  0  0  0  0
  135.5470  134.9260  153.3700 C   0  0  0  0  0  3  0  0  0  0  0  0
  134.7380  134.2130  154.2620 C   0  0  0  0  0  0  0  0  0  0  0  0
  134.7340  134.5320  155.6260 C   0  0  0  0  0  0  0  0  0  0  0  0
  135.5660  135.5710  156.0770 C   0  0  0  0  0  3  0  0  0  0  0  0
  134.0080  133.9500  156.6300 O   0  0  0  0  0  0  0  0  0  0  0  0
  134.0270  134.5670  157.9100 C   0  0  0  0  0  1  0  0  0  0  0  0
  133.9610  133.2070  153.7570 O   0  0  0  0  0  0  0  0  0  0  0  0
  134.3290  132.3560  153.6190 H   0  0  0  0  0  0  0  0  0  0  0  0
  140.2810  137.7130  152.8350 O   0  0  0  0  0  0  0  0  0  0  0  0
  141.3060  137.7230  151.9430 C   0  0  0  0  0  0  0  0  0  0  0  0
  141.4440  136.9130  151.0360 O   0  0  0  0  0  0  0  0  0  0  0  0
  142.1960  138.9180  152.1800 C   0  0  0  0  0  2  0  0  0  0  0  0
  143.6510  138.4780  152.0610 C   0  0  0  0  0  2  0  0  0  0  0  0
  144.0070  137.3670  153.0390 C   0  0  0  0  0  2  0  0  0  0  0  0
  145.0830  137.8540  154.0060 C   0  0  0  0  0  2  0  0  0  0  0  0
  146.2920  136.9270  153.9990 C   0  0  0  0  0  2  0  0  0  0  0  0
  147.4170  137.5050  154.8530 C   0  0  0  0  0  2  0  0  0  0  0  0
  147.3930  139.0290  154.8160 C   0  0  0  0  0  2  0  0  0  0  0  0
  148.3940  139.5670  153.7970 C   0  0  0  0  0  2  0  0  0  0  0  0
  147.6820  140.3770  152.7170 C   0  0  0  0  0  2  0  0  0  0  0  0
  146.0190  142.2530  152.5940 C   0  0  0  0  0  1  0  0  0  0  0  0
  147.3130  141.7680  153.2250 C   0  0  0  0  0  2  0  0  0  0  0  0
  1  2  1  0  0  0  0
  2  3  2  0  0  0  0
  4  2  1  0  0  0  0
  4  6  1  0  0  0  0
  5  4  1  0  0  0  0
  7  6  1  0  0  0  0
  7 12  1  0  0  0  0
  8  7  2  0  0  0  0
  9  8  1  0  0  0  0
  9 10  2  0  0  0  0
 10 11  1  0  0  0  0
 11 12  2  0  0  0  0
 11 13  1  0  0  0  0
 13 14  1  0  0  0  0
 15 10  1  0  0  0  0
 16 15  1  0  0  0  0
 17  1  1  0  0  0  0
 18 20  1  0  0  0  0
 18 17  1  0  0  0  0
 19 18  2  0  0  0  0
 21 20  1  0  0  0  0
 21 22  1  0  0  0  0
 22 23  1  0  0  0  0
 24 23  1  0  0  0  0
 24 25  1  0  0  0  0
 26 25  1  0  0  0  0
 27 26  1  0  0  0  0
 28 30  1  0  0  0  0
 28 27  1  0  0  0  0
 29 30  1  0  0  0  0
M  END
>  <MODEL>
1

>  <REMARK>
 VINA RESULT:    -5.845      0.000      0.000
 INTER + INTRA:         -13.699
 INTER:                 -12.414
 INTRA:                  -1.285
 UNBOUND:                -2.215
  Name = CHEMBL4226582
  19 active torsions:
  status: ('A' for Active; 'I' for Inactive)
    1  A    between atoms: C_1  and  C_2
    2  A    between atoms: C_2  and  C_3
    3  A    between atoms: C_3  and  C_4
    4  A    between atoms: C_4  and  C_5
    5  A    between atoms: C_5  and  C_6
    6  A    between atoms: C_6  and  C_7
    7  A    between atoms: C_7  and  C_8
    8  A    between atoms: C_8  and  C_9
    9  A    between atoms: C_9  and  C_10
   10  A    between atoms: C_10  and  C_11
   11  A    between atoms: C_11  and  C_12
   12  A    between atoms: C_12  and  O_14
   13  A    between atoms: O_14  and  C_15
   14  A    between atoms: C_15  and  C_16
   15  A    between atoms: N_18  and  C_19
   16  A    between atoms: C_19  and  C_20
   17  A    between atoms: C_23  and  O_24
   18  A    between atoms: C_25  and  O_26
   19  A    between atoms: O_26  and  C_27
                            x       y       z     vdW  Elec       q    Type
                         _______ _______ _______ _____ _____    ______ ____

>  <TORSDO>
F 17

>  <SCORE>
-5.845

>  <RMSD_LB>
0.000

>  <RMSD_UB>
0.000

$$$$
CHEMBL4226582
 OpenBabel10172500533D

 30 30  0  0  0  0  0  0  0  0999 V2000
  144.4310  139.6340  148.4270 C   0  0  0  0  0  2  0  0  0  0  0  0
  145.7270  140.3510  148.7960 C   0  0  0  0  0  0  0  0  0  0  0  0
  146.8290  139.8910  148.5020 O   0  0  0  0  0  0  0  0  0  0  0  0
  145.5590  141.5710  149.4130 N   0  0  0  0  0  0  0  0  0  0  0  0
  144.6500  141.8700  149.6420 H   0  0  0  0  0  0  0  0  0  0  0  0
  146.6800  142.4260  149.7310 C   0  0  0  0  0  2  0  0  0  0  0  0
  147.2540  142.1330  151.0940 C   0  0  0  0  0  0  0  0  0  0  0  0
  148.6390  142.1660  151.2960 C   0  0  0  0  0  3  0  0  0  0  0  0
  149.1780  141.9150  152.5560 C   0  0  0  0  0  3  0  0  0  0  0  0
  148.3380  141.6200  153.6350 C   0  0  0  0  0  0  0  0  0  0  0  0
  146.9490  141.5640  153.4580 C   0  0  0  0  0  0  0  0  0  0  0  0
  146.4230  141.8210  152.1810 C   0  0  0  0  0  3  0  0  0  0  0  0
  145.9860  141.2870  154.3910 O   0  0  0  0  0  0  0  0  0  0  0  0
  145.3240  140.0320  154.3140 C   0  0  0  0  0  1  0  0  0  0  0  0
  148.9170  141.3920  154.8540 O   0  0  0  0  0  0  0  0  0  0  0  0
  149.0770  142.1080  155.4360 H   0  0  0  0  0  0  0  0  0  0  0  0
  143.3410  140.3470  149.0190 O   0  0  0  0  0  0  0  0  0  0  0  0
  142.9350  139.8480  150.2150 C   0  0  0  0  0  0  0  0  0  0  0  0
  143.3500  140.2270  151.3020 O   0  0  0  0  0  0  0  0  0  0  0  0
  141.8450  138.8260  150.0150 C   0  0  0  0  0  2  0  0  0  0  0  0
  140.7510  139.0640  151.0500 C   0  0  0  0  0  2  0  0  0  0  0  0
  139.8350  137.8610  151.2200 C   0  0  0  0  0  2  0  0  0  0  0  0
  139.3160  137.8040  152.6550 C   0  0  0  0  0  2  0  0  0  0  0  0
  140.1440  138.6900  153.5770 C   0  0  0  0  0  2  0  0  0  0  0  0
  140.1850  138.1080  154.9870 C   0  0  0  0  0  2  0  0  0  0  0  0
  138.8370  138.2790  155.6790 C   0  0  0  0  0  2  0  0  0  0  0  0
  138.4700  137.0300  156.4770 C   0  0  0  0  0  2  0  0  0  0  0  0
  137.8480  137.4100  157.8170 C   0  0  0  0  0  2  0  0  0  0  0  0
  136.2780  135.6180  157.0310 C   0  0  0  0  0  1  0  0  0  0  0  0
  136.4640  136.7890  157.9790 C   0  0  0  0  0  2  0  0  0  0  0  0
  1  2  1  0  0  0  0
  1 17  1  0  0  0  0
  2  4  1  0  0  0  0
  3  2  2  0  0  0  0
  4  5  1  0  0  0  0
  4  6  1  0  0  0  0
  6  7  1  0  0  0  0
  7  8  2  0  0  0  0
  7 12  1  0  0  0  0
  8  9  1  0  0  0  0
  9 10  2  0  0  0  0
 10 15  1  0  0  0  0
 11 10  1  0  0  0  0
 11 13  1  0  0  0  0
 12 11  2  0  0  0  0
 14 13  1  0  0  0  0
 15 16  1  0  0  0  0
 17 18  1  0  0  0  0
 18 19  2  0  0  0  0
 20 18  1  0  0  0  0
 20 21  1  0  0  0  0
 21 22  1  0  0  0  0
 22 23  1  0  0  0  0
 23 24  1  0  0  0  0
 24 25  1  0  0  0  0
 25 26  1  0  0  0  0
 26 27  1  0  0  0  0
 27 28  1  0  0  0  0
 28 30  1  0  0  0  0
 29 30  1  0  0  0  0
M  END
>  <MODEL>
2

>  <REMARK>
 VINA RESULT:    -5.509      4.575     10.734
 INTER + INTRA:         -13.038
 INTER:                 -11.830
 INTRA:                  -1.208
 UNBOUND:                -2.215
  Name = CHEMBL4226582
  19 active torsions:
  status: ('A' for Active; 'I' for Inactive)
    1  A    between atoms: C_1  and  C_2
    2  A    between atoms: C_2  and  C_3
    3  A    between atoms: C_3  and  C_4
    4  A    between atoms: C_4  and  C_5
    5  A    between atoms: C_5  and  C_6
    6  A    between atoms: C_6  and  C_7
    7  A    between atoms: C_7  and  C_8
    8  A    between atoms: C_8  and  C_9
    9  A    between atoms: C_9  and  C_10
   10  A    between atoms: C_10  and  C_11
   11  A    between atoms: C_11  and  C_12
   12  A    between atoms: C_12  and  O_14
   13  A    between atoms: O_14  and  C_15
   14  A    between atoms: C_15  and  C_16
   15  A    between atoms: N_18  and  C_19
   16  A    between atoms: C_19  and  C_20
   17  A    between atoms: C_23  and  O_24
   18  A    between atoms: C_25  and  O_26
   19  A    between atoms: O_26  and  C_27
                            x       y       z     vdW  Elec       q    Type
                         _______ _______ _______ _____ _____    ______ ____

>  <TORSDO>
F 17

>  <SCORE>
-5.509

>  <RMSD_LB>
4.575

>  <RMSD_UB>
10.734

$$$$
CHEMBL4226582
 OpenBabel10172500533D

 30 30  0  0  0  0  0  0  0  0999 V2000
  138.8270  138.5130  151.1510 C   0  0  0  0  0  2  0  0  0  0  0  0
  139.3960  138.3910  152.5620 C   0  0  0  0  0  0  0  0  0  0  0  0
  140.6030  138.2740  152.7670 O   0  0  0  0  0  0  0  0  0  0  0  0
  138.4660  138.4910  153.5740 N   0  0  0  0  0  0  0  0  0  0  0  0
  137.5120  138.5580  153.3400 H   0  0  0  0  0  0  0  0  0  0  0  0
  138.8510  138.5020  154.9670 C   0  0  0  0  0  2  0  0  0  0  0  0
  137.9380  137.6580  155.8190 C   0  0  0  0  0  0  0  0  0  0  0  0
  137.9880  137.7580  157.2140 C   0  0  0  0  0  3  0  0  0  0  0  0
  137.1360  136.9960  158.0110 C   0  0  0  0  0  3  0  0  0  0  0  0
  136.2220  136.1150  157.4220 C   0  0  0  0  0  0  0  0  0  0  0  0
  136.1620  135.9840  156.0290 C   0  0  0  0  0  0  0  0  0  0  0  0
  137.0280  136.7600  155.2410 C   0  0  0  0  0  3  0  0  0  0  0  0
  135.3420  135.1740  155.2880 O   0  0  0  0  0  0  0  0  0  0  0  0
  134.3220  135.7880  154.5130 C   0  0  0  0  0  1  0  0  0  0  0  0
  135.4000  135.3990  158.2480 O   0  0  0  0  0  0  0  0  0  0  0  0
  134.5820  135.0740  157.9270 H   0  0  0  0  0  0  0  0  0  0  0  0
  138.5460  137.1970  150.6670 O   0  0  0  0  0  0  0  0  0  0  0  0
  137.2370  136.9810  150.3730 C   0  0  0  0  0  0  0  0  0  0  0  0
  136.7230  137.2070  149.2860 O   0  0  0  0  0  0  0  0  0  0  0  0
  136.5340  136.3480  151.5480 C   0  0  0  0  0  2  0  0  0  0  0  0
  135.9360  135.0170  151.1040 C   0  0  0  0  0  2  0  0  0  0  0  0
  134.4250  135.0830  150.9350 C   0  0  0  0  0  2  0  0  0  0  0  0
  133.8130  133.7120  151.2150 C   0  0  0  0  0  2  0  0  0  0  0  0
  132.9500  133.2440  150.0510 C   0  0  0  0  0  2  0  0  0  0  0  0
  133.8210  132.8390  148.8650 C   0  0  0  0  0  2  0  0  0  0  0  0
  133.2260  133.3540  147.5590 C   0  0  0  0  0  2  0  0  0  0  0  0
  133.7670  134.7400  147.2210 C   0  0  0  0  0  2  0  0  0  0  0  0
  132.7590  135.8210  147.6000 C   0  0  0  0  0  2  0  0  0  0  0  0
  134.3510  137.0880  146.1310 C   0  0  0  0  0  1  0  0  0  0  0  0
  133.2360  137.2000  147.1570 C   0  0  0  0  0  2  0  0  0  0  0  0
  1  2  1  0  0  0  0
  2  3  2  0  0  0  0
  2  4  1  0  0  0  0
  4  6  1  0  0  0  0
  5  4  1  0  0  0  0
  6  7  1  0  0  0  0
  7  8  1  0  0  0  0
  8  9  2  0  0  0  0
 10  9  1  0  0  0  0
 10 15  1  0  0  0  0
 11 10  2  0  0  0  0
 12  7  2  0  0  0  0
 12 11  1  0  0  0  0
 13 11  1  0  0  0  0
 14 13  1  0  0  0  0
 16 15  1  0  0  0  0
 17  1  1  0  0  0  0
 18 17  1  0  0  0  0
 18 20  1  0  0  0  0
 19 18  2  0  0  0  0
 21 20  1  0  0  0  0
 22 21  1  0  0  0  0
 22 23  1  0  0  0  0
 24 23  1  0  0  0  0
 25 24  1  0  0  0  0
 26 25  1  0  0  0  0
 27 26  1  0  0  0  0
 27 28  1  0  0  0  0
 29 30  1  0  0  0  0
 30 28  1  0  0  0  0
M  END
>  <MODEL>
3

>  <REMARK>
 VINA RESULT:    -5.487      4.737      9.101
 INTER + INTRA:         -12.995
 INTER:                 -11.245
 INTRA:                  -1.750
 UNBOUND:                -2.215
  Name = CHEMBL4226582
  19 active torsions:
  status: ('A' for Active; 'I' for Inactive)
    1  A    between atoms: C_1  and  C_2
    2  A    between atoms: C_2  and  C_3
    3  A    between atoms: C_3  and  C_4
    4  A    between atoms: C_4  and  C_5
    5  A    between atoms: C_5  and  C_6
    6  A    between atoms: C_6  and  C_7
    7  A    between atoms: C_7  and  C_8
    8  A    between atoms: C_8  and  C_9
    9  A    between atoms: C_9  and  C_10
   10  A    between atoms: C_10  and  C_11
   11  A    between atoms: C_11  and  C_12
   12  A    between atoms: C_12  and  O_14
   13  A    between atoms: O_14  and  C_15
   14  A    between atoms: C_15  and  C_16
   15  A    between atoms: N_18  and  C_19
   16  A    between atoms: C_19  and  C_20
   17  A    between atoms: C_23  and  O_24
   18  A    between atoms: C_25  and  O_26
   19  A    between atoms: O_26  and  C_27
                            x       y       z     vdW  Elec       q    Type
                         _______ _______ _______ _____ _____    ______ ____

>  <TORSDO>
F 17

>  <SCORE>
-5.487

>  <RMSD_LB>
4.737

>  <RMSD_UB>
9.101

$$$$
CHEMBL4226582
 OpenBabel10172500533D

 30 30  0  0  0  0  0  0  0  0999 V2000
  141.5110  138.1670  154.0520 C   0  0  0  0  0  2  0  0  0  0  0  0
  142.4850  139.1650  154.6730 C   0  0  0  0  0  0  0  0  0  0  0  0
  142.1840  139.8390  155.6560 O   0  0  0  0  0  0  0  0  0  0  0  0
  143.7340  139.1940  154.0910 N   0  0  0  0  0  0  0  0  0  0  0  0
  143.9010  138.6470  153.2910 H   0  0  0  0  0  0  0  0  0  0  0  0
  144.8050  140.0050  154.6250 C   0  0  0  0  0  2  0  0  0  0  0  0
  145.5830  140.7090  153.5420 C   0  0  0  0  0  0  0  0  0  0  0  0
  146.8380  141.2610  153.8240 C   0  0  0  0  0  3  0  0  0  0  0  0
  147.5730  141.8970  152.8260 C   0  0  0  0  0  3  0  0  0  0  0  0
  147.0610  141.9950  151.5280 C   0  0  0  0  0  0  0  0  0  0  0  0
  145.8010  141.4650  151.2220 C   0  0  0  0  0  0  0  0  0  0  0  0
  145.0730  140.8270  152.2400 C   0  0  0  0  0  3  0  0  0  0  0  0
  145.1460  141.4750  150.0190 O   0  0  0  0  0  0  0  0  0  0  0  0
  144.3170  140.3660  149.7010 C   0  0  0  0  0  1  0  0  0  0  0  0
  147.8280  142.6190  150.5820 O   0  0  0  0  0  0  0  0  0  0  0  0
  147.4550  143.2930  150.0480 H   0  0  0  0  0  0  0  0  0  0  0  0
  140.5960  138.8910  153.2240 O   0  0  0  0  0  0  0  0  0  0  0  0
  140.8510  138.7880  151.8930 C   0  0  0  0  0  0  0  0  0  0  0  0
  141.2370  139.7100  151.1870 O   0  0  0  0  0  0  0  0  0  0  0  0
  140.6720  137.3630  151.4340 C   0  0  0  0  0  2  0  0  0  0  0  0
  141.6580  137.0830  150.3040 C   0  0  0  0  0  2  0  0  0  0  0  0
  143.0470  136.7270  150.8160 C   0  0  0  0  0  2  0  0  0  0  0  0
  143.7920  135.9100  149.7630 C   0  0  0  0  0  2  0  0  0  0  0  0
  144.7830  136.7740  148.9940 C   0  0  0  0  0  2  0  0  0  0  0  0
  146.1410  136.0810  148.9010 C   0  0  0  0  0  2  0  0  0  0  0  0
  147.2350  136.9620  149.4970 C   0  0  0  0  0  2  0  0  0  0  0  0
  146.6950  137.7960  150.6540 C   0  0  0  0  0  2  0  0  0  0  0  0
  147.2280  137.2790  151.9870 C   0  0  0  0  0  2  0  0  0  0  0  0
  145.7430  136.5110  153.8600 C   0  0  0  0  0  1  0  0  0  0  0  0
  146.3630  136.1420  152.5230 C   0  0  0  0  0  2  0  0  0  0  0  0
  1  2  1  0  0  0  0
  2  3  2  0  0  0  0
  4  6  1  0  0  0  0
  4  2  1  0  0  0  0
  5  4  1  0  0  0  0
  7  8  1  0  0  0  0
  7  6  1  0  0  0  0
  9  8  2  0  0  0  0
 10  9  1  0  0  0  0
 11 10  2  0  0  0  0
 11 12  1  0  0  0  0
 12  7  2  0  0  0  0
 13 11  1  0  0  0  0
 14 13  1  0  0  0  0
 15 10  1  0  0  0  0
 16 15  1  0  0  0  0
 17  1  1  0  0  0  0
 18 17  1  0  0  0  0
 19 18  2  0  0  0  0
 20 18  1  0  0  0  0
 21 22  1  0  0  0  0
 21 20  1  0  0  0  0
 23 22  1  0  0  0  0
 24 23  1  0  0  0  0
 25 24  1  0  0  0  0
 25 26  1  0  0  0  0
 26 27  1  0  0  0  0
 27 28  1  0  0  0  0
 28 30  1  0  0  0  0
 30 29  1  0  0  0  0
M  END
>  <MODEL>
4

>  <REMARK>
 VINA RESULT:    -5.459      4.653      8.591
 INTER + INTRA:         -12.941
 INTER:                 -10.302
 INTRA:                  -2.638
 UNBOUND:                -2.215
  Name = CHEMBL4226582
  19 active torsions:
  status: ('A' for Active; 'I' for Inactive)
    1  A    between atoms: C_1  and  C_2
    2  A    between atoms: C_2  and  C_3
    3  A    between atoms: C_3  and  C_4
    4  A    between atoms: C_4  and  C_5
    5  A    between atoms: C_5  and  C_6
    6  A    between atoms: C_6  and  C_7
    7  A    between atoms: C_7  and  C_8
    8  A    between atoms: C_8  and  C_9
    9  A    between atoms: C_9  and  C_10
   10  A    between atoms: C_10  and  C_11
   11  A    between atoms: C_11  and  C_12
   12  A    between atoms: C_12  and  O_14
   13  A    between atoms: O_14  and  C_15
   14  A    between atoms: C_15  and  C_16
   15  A    between atoms: N_18  and  C_19
   16  A    between atoms: C_19  and  C_20
   17  A    between atoms: C_23  and  O_24
   18  A    between atoms: C_25  and  O_26
   19  A    between atoms: O_26  and  C_27
                            x       y       z     vdW  Elec       q    Type
                         _______ _______ _______ _____ _____    ______ ____

>  <TORSDO>
F 17

>  <SCORE>
-5.459

>  <RMSD_LB>
4.653

>  <RMSD_UB>
8.591

$$$$
CHEMBL4226582
 OpenBabel10172500533D

 30 30  0  0  0  0  0  0  0  0999 V2000
  140.0790  140.1780  149.9500 C   0  0  0  0  0  2  0  0  0  0  0  0
  141.4780  139.6120  150.1770 C   0  0  0  0  0  0  0  0  0  0  0  0
  141.6550  138.4850  150.6330 O   0  0  0  0  0  0  0  0  0  0  0  0
  142.5080  140.4310  149.7680 N   0  0  0  0  0  0  0  0  0  0  0  0
  142.2980  141.3330  149.4340 H   0  0  0  0  0  0  0  0  0  0  0  0
  143.8880  140.0040  149.8140 C   0  0  0  0  0  2  0  0  0  0  0  0
  144.6190  140.5580  151.0100 C   0  0  0  0  0  0  0  0  0  0  0  0
  145.1980  141.8310  150.9530 C   0  0  0  0  0  3  0  0  0  0  0  0
  145.8600  142.3600  152.0590 C   0  0  0  0  0  3  0  0  0  0  0  0
  145.9570  141.6190  153.2420 C   0  0  0  0  0  0  0  0  0  0  0  0
  145.4010  140.3360  153.3220 C   0  0  0  0  0  0  0  0  0  0  0  0
  144.7370  139.8180  152.1970 C   0  0  0  0  0  3  0  0  0  0  0  0
  145.4070  139.4750  154.3860 O   0  0  0  0  0  0  0  0  0  0  0  0
  144.5550  138.3390  154.3300 C   0  0  0  0  0  1  0  0  0  0  0  0
  146.6070  142.1890  154.3020 O   0  0  0  0  0  0  0  0  0  0  0  0
  146.4360  141.8870  155.1720 H   0  0  0  0  0  0  0  0  0  0  0  0
  139.3270  139.2220  149.1970 O   0  0  0  0  0  0  0  0  0  0  0  0
  138.0150  139.5420  149.0450 C   0  0  0  0  0  0  0  0  0  0  0  0
  137.5720  140.6830  149.0710 O   0  0  0  0  0  0  0  0  0  0  0  0
  137.2030  138.3050  148.7560 C   0  0  0  0  0  2  0  0  0  0  0  0
  137.7920  137.1360  149.5390 C   0  0  0  0  0  2  0  0  0  0  0  0
  137.0820  136.9050  150.8650 C   0  0  0  0  0  2  0  0  0  0  0  0
  136.6510  135.4430  150.9730 C   0  0  0  0  0  2  0  0  0  0  0  0
  135.1330  135.3150  150.9870 C   0  0  0  0  0  2  0  0  0  0  0  0
  134.7150  133.9280  151.4680 C   0  0  0  0  0  2  0  0  0  0  0  0
  133.5820  133.3790  150.6070 C   0  0  0  0  0  2  0  0  0  0  0  0
  134.1270  132.7270  149.3390 C   0  0  0  0  0  2  0  0  0  0  0  0
  133.5570  133.4050  148.0960 C   0  0  0  0  0  2  0  0  0  0  0  0
  136.0150  133.7290  147.7110 C   0  0  0  0  0  1  0  0  0  0  0  0
  134.6210  134.2340  147.3830 C   0  0  0  0  0  2  0  0  0  0  0  0
  1  2  1  0  0  0  0
  2  3  2  0  0  0  0
  4  6  1  0  0  0  0
  4  2  1  0  0  0  0
  5  4  1  0  0  0  0
  6  7  1  0  0  0  0
  7 12  1  0  0  0  0
  8  7  2  0  0  0  0
  8  9  1  0  0  0  0
  9 10  2  0  0  0  0
 10 11  1  0  0  0  0
 10 15  1  0  0  0  0
 11 13  1  0  0  0  0
 12 11  2  0  0  0  0
 14 13  1  0  0  0  0
 15 16  1  0  0  0  0
 17  1  1  0  0  0  0
 18 19  2  0  0  0  0
 18 17  1  0  0  0  0
 20 18  1  0  0  0  0
 20 21  1  0  0  0  0
 21 22  1  0  0  0  0
 22 23  1  0  0  0  0
 23 24  1  0  0  0  0
 24 25  1  0  0  0  0
 26 25  1  0  0  0  0
 27 26  1  0  0  0  0
 28 27  1  0  0  0  0
 30 29  1  0  0  0  0
 30 28  1  0  0  0  0
M  END
>  <MODEL>
5

>  <REMARK>
 VINA RESULT:    -5.273      4.384     11.086
 INTER + INTRA:         -12.574
 INTER:                 -11.069
 INTRA:                  -1.505
 UNBOUND:                -2.215
  Name = CHEMBL4226582
  19 active torsions:
  status: ('A' for Active; 'I' for Inactive)
    1  A    between atoms: C_1  and  C_2
    2  A    between atoms: C_2  and  C_3
    3  A    between atoms: C_3  and  C_4
    4  A    between atoms: C_4  and  C_5
    5  A    between atoms: C_5  and  C_6
    6  A    between atoms: C_6  and  C_7
    7  A    between atoms: C_7  and  C_8
    8  A    between atoms: C_8  and  C_9
    9  A    between atoms: C_9  and  C_10
   10  A    between atoms: C_10  and  C_11
   11  A    between atoms: C_11  and  C_12
   12  A    between atoms: C_12  and  O_14
   13  A    between atoms: O_14  and  C_15
   14  A    between atoms: C_15  and  C_16
   15  A    between atoms: N_18  and  C_19
   16  A    between atoms: C_19  and  C_20
   17  A    between atoms: C_23  and  O_24
   18  A    between atoms: C_25  and  O_26
   19  A    between atoms: O_26  and  C_27
                            x       y       z     vdW  Elec       q    Type
                         _______ _______ _______ _____ _____    ______ ____

>  <TORSDO>
F 17

>  <SCORE>
-5.273

>  <RMSD_LB>
4.384

>  <RMSD_UB>
11.086

$$$$
CHEMBL4226582
 OpenBabel10172500533D

 30 30  0  0  0  0  0  0  0  0999 V2000
  139.5800  137.9030  150.4310 C   0  0  0  0  0  2  0  0  0  0  0  0
  138.1090  137.5740  150.1890 C   0  0  0  0  0  0  0  0  0  0  0  0
  137.3330  138.3960  149.7050 O   0  0  0  0  0  0  0  0  0  0  0  0
  137.7480  136.2790  150.4860 N   0  0  0  0  0  0  0  0  0  0  0  0
  138.4130  135.6790  150.8950 H   0  0  0  0  0  0  0  0  0  0  0  0
  136.4200  135.7750  150.2160 C   0  0  0  0  0  2  0  0  0  0  0  0
  135.6080  135.5980  151.4730 C   0  0  0  0  0  0  0  0  0  0  0  0
  134.2220  135.4180  151.3950 C   0  0  0  0  0  3  0  0  0  0  0  0
  133.4650  135.2350  152.5500 C   0  0  0  0  0  3  0  0  0  0  0  0
  134.0840  135.2340  153.8050 C   0  0  0  0  0  0  0  0  0  0  0  0
  135.4670  135.4270  153.9130 C   0  0  0  0  0  0  0  0  0  0  0  0
  136.2150  135.6100  152.7380 C   0  0  0  0  0  3  0  0  0  0  0  0
  136.2320  135.4620  155.0490 O   0  0  0  0  0  0  0  0  0  0  0  0
  136.2990  136.6830  155.7710 C   0  0  0  0  0  1  0  0  0  0  0  0
  133.2970  135.0390  154.9070 O   0  0  0  0  0  0  0  0  0  0  0  0
  133.6780  134.7310  155.7060 H   0  0  0  0  0  0  0  0  0  0  0  0
  139.9340  137.4330  151.7350 O   0  0  0  0  0  0  0  0  0  0  0  0
  141.0660  137.9920  152.2380 C   0  0  0  0  0  0  0  0  0  0  0  0
  141.1360  138.5650  153.3180 O   0  0  0  0  0  0  0  0  0  0  0  0
  142.2330  137.7330  151.3190 C   0  0  0  0  0  2  0  0  0  0  0  0
  142.9790  139.0430  151.0900 C   0  0  0  0  0  2  0  0  0  0  0  0
  144.4880  138.8540  151.0330 C   0  0  0  0  0  2  0  0  0  0  0  0
  144.9400  138.7360  149.5790 C   0  0  0  0  0  2  0  0  0  0  0  0
  146.3810  139.1990  149.4100 C   0  0  0  0  0  2  0  0  0  0  0  0
  146.8560  139.9440  150.6550 C   0  0  0  0  0  2  0  0  0  0  0  0
  146.9850  141.4370  150.3710 C   0  0  0  0  0  2  0  0  0  0  0  0
  147.4990  142.1840  151.5990 C   0  0  0  0  0  2  0  0  0  0  0  0
  146.4060  142.2970  152.6580 C   0  0  0  0  0  2  0  0  0  0  0  0
  148.3720  141.9240  154.1730 C   0  0  0  0  0  1  0  0  0  0  0  0
  146.8750  141.7350  153.9970 C   0  0  0  0  0  2  0  0  0  0  0  0
  1 17  1  0  0  0  0
  2  1  1  0  0  0  0
  2  4  1  0  0  0  0
  3  2  2  0  0  0  0
  4  5  1  0  0  0  0
  6  4  1  0  0  0  0
  6  7  1  0  0  0  0
  7 12  1  0  0  0  0
  8  7  2  0  0  0  0
  8  9  1  0  0  0  0
  9 10  2  0  0  0  0
 10 11  1  0  0  0  0
 10 15  1  0  0  0  0
 11 13  1  0  0  0  0
 12 11  2  0  0  0  0
 13 14  1  0  0  0  0
 15 16  1  0  0  0  0
 17 18  1  0  0  0  0
 18 19  2  0  0  0  0
 20 18  1  0  0  0  0
 21 20  1  0  0  0  0
 22 21  1  0  0  0  0
 23 22  1  0  0  0  0
 24 23  1  0  0  0  0
 24 25  1  0  0  0  0
 26 25  1  0  0  0  0
 26 27  1  0  0  0  0
 27 28  1  0  0  0  0
 28 30  1  0  0  0  0
 30 29  1  0  0  0  0
M  END
>  <MODEL>
6

>  <REMARK>
 VINA RESULT:    -5.109      2.377      3.603
 INTER + INTRA:         -12.252
 INTER:                 -11.036
 INTRA:                  -1.216
 UNBOUND:                -2.215
  Name = CHEMBL4226582
  19 active torsions:
  status: ('A' for Active; 'I' for Inactive)
    1  A    between atoms: C_1  and  C_2
    2  A    between atoms: C_2  and  C_3
    3  A    between atoms: C_3  and  C_4
    4  A    between atoms: C_4  and  C_5
    5  A    between atoms: C_5  and  C_6
    6  A    between atoms: C_6  and  C_7
    7  A    between atoms: C_7  and  C_8
    8  A    between atoms: C_8  and  C_9
    9  A    between atoms: C_9  and  C_10
   10  A    between atoms: C_10  and  C_11
   11  A    between atoms: C_11  and  C_12
   12  A    between atoms: C_12  and  O_14
   13  A    between atoms: O_14  and  C_15
   14  A    between atoms: C_15  and  C_16
   15  A    between atoms: N_18  and  C_19
   16  A    between atoms: C_19  and  C_20
   17  A    between atoms: C_23  and  O_24
   18  A    between atoms: C_25  and  O_26
   19  A    between atoms: O_26  and  C_27
                            x       y       z     vdW  Elec       q    Type
                         _______ _______ _______ _____ _____    ______ ____

>  <TORSDO>
F 17

>  <SCORE>
-5.109

>  <RMSD_LB>
2.377

>  <RMSD_UB>
3.603

$$$$
CHEMBL4226582
 OpenBabel10172500533D

 30 30  0  0  0  0  0  0  0  0999 V2000
  144.3900  139.6830  148.5340 C   0  0  0  0  0  2  0  0  0  0  0  0
  145.7060  140.3960  148.8330 C   0  0  0  0  0  0  0  0  0  0  0  0
  146.7830  139.9690  148.4210 O   0  0  0  0  0  0  0  0  0  0  0  0
  145.5800  141.5760  149.5330 N   0  0  0  0  0  0  0  0  0  0  0  0
  144.6900  141.8470  149.8560 H   0  0  0  0  0  0  0  0  0  0  0  0
  146.7160  142.4270  149.8060 C   0  0  0  0  0  2  0  0  0  0  0  0
  147.3120  142.1670  151.1660 C   0  0  0  0  0  0  0  0  0  0  0  0
  148.6940  142.2710  151.3590 C   0  0  0  0  0  3  0  0  0  0  0  0
  149.2530  142.0500  152.6160 C   0  0  0  0  0  3  0  0  0  0  0  0
  148.4360  141.7160  153.7020 C   0  0  0  0  0  0  0  0  0  0  0  0
  147.0510  141.5890  153.5330 C   0  0  0  0  0  0  0  0  0  0  0  0
  146.5040  141.8160  152.2580 C   0  0  0  0  0  3  0  0  0  0  0  0
  146.1090  141.2660  154.4720 O   0  0  0  0  0  0  0  0  0  0  0  0
  145.2440  140.1720  154.2010 C   0  0  0  0  0  1  0  0  0  0  0  0
  149.0330  141.5210  154.9170 O   0  0  0  0  0  0  0  0  0  0  0  0
  148.6360  140.9530  155.5470 H   0  0  0  0  0  0  0  0  0  0  0  0
  144.0010  138.9520  149.7010 O   0  0  0  0  0  0  0  0  0  0  0  0
  142.9310  138.1370  149.5150 C   0  0  0  0  0  0  0  0  0  0  0  0
  142.0200  138.3560  148.7270 O   0  0  0  0  0  0  0  0  0  0  0  0
  143.0690  136.8900  150.3510 C   0  0  0  0  0  2  0  0  0  0  0  0
  144.1140  135.9820  149.7120 C   0  0  0  0  0  2  0  0  0  0  0  0
  145.4290  135.9760  150.4780 C   0  0  0  0  0  2  0  0  0  0  0  0
  146.5620  136.4380  149.5630 C   0  0  0  0  0  2  0  0  0  0  0  0
  146.1040  136.5100  148.1120 C   0  0  0  0  0  2  0  0  0  0  0  0
  146.7210  135.3770  147.2970 C   0  0  0  0  0  2  0  0  0  0  0  0
  146.4160  135.5540  145.8130 C   0  0  0  0  0  2  0  0  0  0  0  0
  145.9660  134.2360  145.1870 C   0  0  0  0  0  2  0  0  0  0  0  0
  144.4810  134.2840  144.8380 C   0  0  0  0  0  2  0  0  0  0  0  0
  142.9590  135.7980  146.1380 C   0  0  0  0  0  1  0  0  0  0  0  0
  143.9280  135.7000  144.9730 C   0  0  0  0  0  2  0  0  0  0  0  0
  1  2  1  0  0  0  0
  1 17  1  0  0  0  0
  2  4  1  0  0  0  0
  3  2  2  0  0  0  0
  4  6  1  0  0  0  0
  4  5  1  0  0  0  0
  6  7  1  0  0  0  0
  7  8  2  0  0  0  0
  7 12  1  0  0  0  0
  8  9  1  0  0  0  0
  9 10  2  0  0  0  0
 10 15  1  0  0  0  0
 11 10  1  0  0  0  0
 11 13  1  0  0  0  0
 12 11  2  0  0  0  0
 14 13  1  0  0  0  0
 15 16  1  0  0  0  0
 18 17  1  0  0  0  0
 18 20  1  0  0  0  0
 19 18  2  0  0  0  0
 21 20  1  0  0  0  0
 21 22  1  0  0  0  0
 23 22  1  0  0  0  0
 24 23  1  0  0  0  0
 25 24  1  0  0  0  0
 26 25  1  0  0  0  0
 27 26  1  0  0  0  0
 28 30  1  0  0  0  0
 28 27  1  0  0  0  0
 30 29  1  0  0  0  0
M  END
>  <MODEL>
7

>  <REMARK>
 VINA RESULT:    -5.089      6.694     10.522
 INTER + INTRA:         -12.212
 INTER:                 -10.341
 INTRA:                  -1.871
 UNBOUND:                -2.215
  Name = CHEMBL4226582
  19 active torsions:
  status: ('A' for Active; 'I' for Inactive)
    1  A    between atoms: C_1  and  C_2
    2  A    between atoms: C_2  and  C_3
    3  A    between atoms: C_3  and  C_4
    4  A    between atoms: C_4  and  C_5
    5  A    between atoms: C_5  and  C_6
    6  A    between atoms: C_6  and  C_7
    7  A    between atoms: C_7  and  C_8
    8  A    between atoms: C_8  and  C_9
    9  A    between atoms: C_9  and  C_10
   10  A    between atoms: C_10  and  C_11
   11  A    between atoms: C_11  and  C_12
   12  A    between atoms: C_12  and  O_14
   13  A    between atoms: O_14  and  C_15
   14  A    between atoms: C_15  and  C_16
   15  A    between atoms: N_18  and  C_19
   16  A    between atoms: C_19  and  C_20
   17  A    between atoms: C_23  and  O_24
   18  A    between atoms: C_25  and  O_26
   19  A    between atoms: O_26  and  C_27
                            x       y       z     vdW  Elec       q    Type
                         _______ _______ _______ _____ _____    ______ ____

>  <TORSDO>
F 17

>  <SCORE>
-5.089

>  <RMSD_LB>
6.694

>  <RMSD_UB>
10.522

$$$$
CHEMBL4226582
 OpenBabel10172500533D

 30 30  0  0  0  0  0  0  0  0999 V2000
  144.3500  139.5020  148.5490 C   0  0  0  0  0  2  0  0  0  0  0  0
  145.5600  140.3250  148.9850 C   0  0  0  0  0  0  0  0  0  0  0  0
  146.7080  139.9890  148.7030 O   0  0  0  0  0  0  0  0  0  0  0  0
  145.2560  141.4940  149.6490 N   0  0  0  0  0  0  0  0  0  0  0  0
  144.3160  141.6900  149.8650 H   0  0  0  0  0  0  0  0  0  0  0  0
  146.2790  142.4390  150.0360 C   0  0  0  0  0  2  0  0  0  0  0  0
  146.9310  142.0720  151.3450 C   0  0  0  0  0  0  0  0  0  0  0  0
  148.3240  142.1100  151.4710 C   0  0  0  0  0  3  0  0  0  0  0  0
  148.9370  141.7910  152.6810 C   0  0  0  0  0  3  0  0  0  0  0  0
  148.1610  141.4210  153.7860 C   0  0  0  0  0  0  0  0  0  0  0  0
  146.7660  141.3590  153.6830 C   0  0  0  0  0  0  0  0  0  0  0  0
  146.1650  141.6850  152.4550 C   0  0  0  0  0  3  0  0  0  0  0  0
  145.8590  141.0150  154.6500 O   0  0  0  0  0  0  0  0  0  0  0  0
  145.0750  139.8480  154.4440 C   0  0  0  0  0  1  0  0  0  0  0  0
  148.8110  141.1280  154.9530 O   0  0  0  0  0  0  0  0  0  0  0  0
  148.5750  141.5720  155.7440 H   0  0  0  0  0  0  0  0  0  0  0  0
  143.2070  139.9700  149.2700 O   0  0  0  0  0  0  0  0  0  0  0  0
  143.0300  139.3730  150.4780 C   0  0  0  0  0  0  0  0  0  0  0  0
  143.0570  139.9590  151.5520 O   0  0  0  0  0  0  0  0  0  0  0  0
  142.7140  137.9100  150.2990 C   0  0  0  0  0  2  0  0  0  0  0  0
  141.4310  137.7790  149.4850 C   0  0  0  0  0  2  0  0  0  0  0  0
  140.9830  136.3330  149.3280 C   0  0  0  0  0  2  0  0  0  0  0  0
  139.4580  136.2670  149.2820 C   0  0  0  0  0  2  0  0  0  0  0  0
  138.8320  137.4500  150.0090 C   0  0  0  0  0  2  0  0  0  0  0  0
  138.1420  136.9890  151.2900 C   0  0  0  0  0  2  0  0  0  0  0  0
  136.6400  136.8460  151.0710 C   0  0  0  0  0  2  0  0  0  0  0  0
  136.1220  135.5400  151.6660 C   0  0  0  0  0  2  0  0  0  0  0  0
  134.7620  135.7490  152.3250 C   0  0  0  0  0  2  0  0  0  0  0  0
  134.3530  133.5810  151.1300 C   0  0  0  0  0  1  0  0  0  0  0  0
  133.7100  134.8210  151.7250 C   0  0  0  0  0  2  0  0  0  0  0  0
  1  2  1  0  0  0  0
  1 17  1  0  0  0  0
  2  4  1  0  0  0  0
  3  2  2  0  0  0  0
  4  5  1  0  0  0  0
  4  6  1  0  0  0  0
  6  7  1  0  0  0  0
  7  8  2  0  0  0  0
  7 12  1  0  0  0  0
  8  9  1  0  0  0  0
  9 10  2  0  0  0  0
 10 15  1  0  0  0  0
 11 10  1  0  0  0  0
 11 13  1  0  0  0  0
 12 11  2  0  0  0  0
 14 13  1  0  0  0  0
 15 16  1  0  0  0  0
 17 18  1  0  0  0  0
 18 19  2  0  0  0  0
 20 18  1  0  0  0  0
 21 20  1  0  0  0  0
 22 21  1  0  0  0  0
 23 22  1  0  0  0  0
 23 24  1  0  0  0  0
 24 25  1  0  0  0  0
 26 25  1  0  0  0  0
 26 27  1  0  0  0  0
 27 28  1  0  0  0  0
 29 30  1  0  0  0  0
 30 28  1  0  0  0  0
M  END
>  <MODEL>
8

>  <REMARK>
 VINA RESULT:    -5.049      4.722     11.207
 INTER + INTRA:         -12.134
 INTER:                 -11.074
 INTRA:                  -1.059
 UNBOUND:                -2.215
  Name = CHEMBL4226582
  19 active torsions:
  status: ('A' for Active; 'I' for Inactive)
    1  A    between atoms: C_1  and  C_2
    2  A    between atoms: C_2  and  C_3
    3  A    between atoms: C_3  and  C_4
    4  A    between atoms: C_4  and  C_5
    5  A    between atoms: C_5  and  C_6
    6  A    between atoms: C_6  and  C_7
    7  A    between atoms: C_7  and  C_8
    8  A    between atoms: C_8  and  C_9
    9  A    between atoms: C_9  and  C_10
   10  A    between atoms: C_10  and  C_11
   11  A    between atoms: C_11  and  C_12
   12  A    between atoms: C_12  and  O_14
   13  A    between atoms: O_14  and  C_15
   14  A    between atoms: C_15  and  C_16
   15  A    between atoms: N_18  and  C_19
   16  A    between atoms: C_19  and  C_20
   17  A    between atoms: C_23  and  O_24
   18  A    between atoms: C_25  and  O_26
   19  A    between atoms: O_26  and  C_27
                            x       y       z     vdW  Elec       q    Type
                         _______ _______ _______ _____ _____    ______ ____

>  <TORSDO>
F 17

>  <SCORE>
-5.049

>  <RMSD_LB>
4.722

>  <RMSD_UB>
11.207

$$$$
CHEMBL4226582
 OpenBabel10172500533D

 30 30  0  0  0  0  0  0  0  0999 V2000
  144.5190  139.9400  146.5040 C   0  0  0  0  0  2  0  0  0  0  0  0
  145.6440  140.5550  147.3330 C   0  0  0  0  0  0  0  0  0  0  0  0
  146.6780  140.9690  146.8150 O   0  0  0  0  0  0  0  0  0  0  0  0
  145.3760  140.6680  148.6800 N   0  0  0  0  0  0  0  0  0  0  0  0
  144.5380  140.2920  149.0340 H   0  0  0  0  0  0  0  0  0  0  0  0
  146.2910  141.3240  149.5870 C   0  0  0  0  0  2  0  0  0  0  0  0
  146.8490  140.3770  150.6190 C   0  0  0  0  0  0  0  0  0  0  0  0
  146.5600  139.0100  150.5480 C   0  0  0  0  0  3  0  0  0  0  0  0
  147.0860  138.1230  151.4860 C   0  0  0  0  0  3  0  0  0  0  0  0
  147.9090  138.5940  152.5150 C   0  0  0  0  0  0  0  0  0  0  0  0
  148.2020  139.9600  152.6190 C   0  0  0  0  0  0  0  0  0  0  0  0
  147.6630  140.8390  151.6640 C   0  0  0  0  0  3  0  0  0  0  0  0
  148.9760  140.5920  153.5550 O   0  0  0  0  0  0  0  0  0  0  0  0
  149.1730  141.9930  153.4230 C   0  0  0  0  0  1  0  0  0  0  0  0
  148.4090  137.6810  153.4020 O   0  0  0  0  0  0  0  0  0  0  0  0
  147.9220  137.4620  154.1720 H   0  0  0  0  0  0  0  0  0  0  0  0
  144.1000  138.7320  147.1460 O   0  0  0  0  0  0  0  0  0  0  0  0
  143.0100  138.1520  146.5790 C   0  0  0  0  0  0  0  0  0  0  0  0
  142.2340  138.7220  145.8230 O   0  0  0  0  0  0  0  0  0  0  0  0
  142.9420  136.6910  146.9460 C   0  0  0  0  0  2  0  0  0  0  0  0
  141.5450  136.3810  147.4750 C   0  0  0  0  0  2  0  0  0  0  0  0
  141.5610  135.8960  148.9180 C   0  0  0  0  0  2  0  0  0  0  0  0
  142.9210  136.1900  149.5470 C   0  0  0  0  0  2  0  0  0  0  0  0
  142.7780  137.0550  150.7920 C   0  0  0  0  0  2  0  0  0  0  0  0
  141.3140  137.1560  151.2110 C   0  0  0  0  0  2  0  0  0  0  0  0
  141.1790  137.9440  152.5100 C   0  0  0  0  0  2  0  0  0  0  0  0
  142.4090  138.8150  152.7510 C   0  0  0  0  0  2  0  0  0  0  0  0
  142.9860  138.5610  154.1410 C   0  0  0  0  0  2  0  0  0  0  0  0
  145.0740  139.9180  154.4510 C   0  0  0  0  0  1  0  0  0  0  0  0
  144.5120  138.5490  154.1100 C   0  0  0  0  0  2  0  0  0  0  0  0
  1 17  1  0  0  0  0
  1  2  1  0  0  0  0
  2  4  1  0  0  0  0
  3  2  2  0  0  0  0
  4  5  1  0  0  0  0
  4  6  1  0  0  0  0
  6  7  1  0  0  0  0
  7 12  1  0  0  0  0
  8  7  2  0  0  0  0
  8  9  1  0  0  0  0
  9 10  2  0  0  0  0
 10 11  1  0  0  0  0
 10 15  1  0  0  0  0
 11 13  1  0  0  0  0
 12 11  2  0  0  0  0
 14 13  1  0  0  0  0
 15 16  1  0  0  0  0
 18 20  1  0  0  0  0
 18 17  1  0  0  0  0
 19 18  2  0  0  0  0
 20 21  1  0  0  0  0
 21 22  1  0  0  0  0
 22 23  1  0  0  0  0
 23 24  1  0  0  0  0
 24 25  1  0  0  0  0
 25 26  1  0  0  0  0
 26 27  1  0  0  0  0
 27 28  1  0  0  0  0
 30 28  1  0  0  0  0
 30 29  1  0  0  0  0
M  END
>  <MODEL>
9

>  <REMARK>
 VINA RESULT:    -5.012      6.146     10.041
 INTER + INTRA:         -12.061
 INTER:                  -9.846
 INTRA:                  -2.215
 UNBOUND:                -2.215
  Name = CHEMBL4226582
  19 active torsions:
  status: ('A' for Active; 'I' for Inactive)
    1  A    between atoms: C_1  and  C_2
    2  A    between atoms: C_2  and  C_3
    3  A    between atoms: C_3  and  C_4
    4  A    between atoms: C_4  and  C_5
    5  A    between atoms: C_5  and  C_6
    6  A    between atoms: C_6  and  C_7
    7  A    between atoms: C_7  and  C_8
    8  A    between atoms: C_8  and  C_9
    9  A    between atoms: C_9  and  C_10
   10  A    between atoms: C_10  and  C_11
   11  A    between atoms: C_11  and  C_12
   12  A    between atoms: C_12  and  O_14
   13  A    between atoms: O_14  and  C_15
   14  A    between atoms: C_15  and  C_16
   15  A    between atoms: N_18  and  C_19
   16  A    between atoms: C_19  and  C_20
   17  A    between atoms: C_23  and  O_24
   18  A    between atoms: C_25  and  O_26
   19  A    between atoms: O_26  and  C_27
                            x       y       z     vdW  Elec       q    Type
                         _______ _______ _______ _____ _____    ______ ____

>  <TORSDO>
F 17

>  <SCORE>
-5.012

>  <RMSD_LB>
6.146

>  <RMSD_UB>
10.041

$$$$
