CHEMBL1314652
 OpenBabel10172500383D

 19 19  0  0  1  0  0  0  0  0999 V2000
  135.4500  135.4730  153.6220 C   0  0  0  0  0  0  0  0  0  0  0  0
  136.6020  135.7950  154.3430 C   0  0  0  0  0  3  0  0  0  0  0  0
  136.6590  135.6100  155.7340 C   0  0  0  0  0  0  0  0  0  0  0  0
  135.5210  135.1460  156.4070 C   0  0  0  0  0  3  0  0  0  0  0  0
  134.3600  134.8330  155.6970 C   0  0  0  0  0  3  0  0  0  0  0  0
  134.3300  134.9980  154.3130 C   0  0  0  0  0  0  0  0  0  0  0  0
  136.4170  136.2680  151.6140 C   0  0  0  0  0  1  0  0  0  0  0  0
  135.3290  135.6240  152.2660 O   0  0  0  0  0  0  0  0  0  0  0  0
  133.2000  134.6760  153.6100 O   0  0  0  0  0  0  0  0  0  0  0  0
  133.2660  134.1870  152.8140 H   0  0  0  0  0  0  0  0  0  0  0  0
  137.9440  135.9050  156.4750 C   0  0  0  0  0  2  0  0  0  0  0  0
  138.4000  137.3740  156.4270 C   0  0  2  0  0  3  0  0  0  0  0  0
  139.4020  137.5800  157.5110 N   0  0  0  0  0  4  0  0  0  0  0  0
  139.3250  138.5310  157.8700 H   0  0  0  0  0  0  0  0  0  0  0  0
  140.3400  137.4310  157.1400 H   0  0  0  0  0  0  0  0  0  0  0  0
  139.2260  136.9160  158.2650 H   0  0  0  0  0  0  0  0  0  0  0  0
  137.2480  138.3880  156.6210 C   0  0  0  0  0  0  0  0  0  0  0  0
  136.6710  138.5560  157.6870 O   0  0  0  0  0  1  0  0  0  0  0  0
  136.9520  139.1460  155.5400 O   0  0  0  0  0  0  0  0  0  0  0  0
  1  6  2  0  0  0  0
  1  2  1  0  0  0  0
  2  3  2  0  0  0  0
  3  4  1  0  0  0  0
  3 11  1  0  0  0  0
  5  4  2  0  0  0  0
  6  5  1  0  0  0  0
  7  8  1  0  0  0  0
  8  1  1  0  0  0  0
  9  6  1  0  0  0  0
 10  9  1  0  0  0  0
 12 11  1  1  0  0  0
 12 17  1  0  0  0  0
 12 13  1  0  0  0  0
 13 14  1  0  0  0  0
 13 16  1  0  0  0  0
 15 13  1  0  0  0  0
 17 18  1  0  0  0  0
 19 17  2  0  0  0  0
M  END
>  <MODEL>
1

>  <REMARK>
 VINA RESULT:    -5.412      0.000      0.000
 INTER + INTRA:          -7.252
 INTER:                  -6.964
 INTRA:                  -0.288
 UNBOUND:                -0.258
  Name = CHEMBL1314652
  7 active torsions:
  status: ('A' for Active; 'I' for Inactive)
    1  A    between atoms: C_1  and  O_2
    2  A    between atoms: O_2  and  C_3
    3  A    between atoms: C_5  and  C_6
    4  A    between atoms: C_6  and  CA_7
    5  A    between atoms: CA_7  and  N_8
    6  A    between atoms: CA_7  and  C_9
    7  A    between atoms: C_14  and  O_15
                            x       y       z     vdW  Elec       q    Type
                         _______ _______ _______ _____ _____    ______ ____

>  <TORSDO>
F 6

>  <SCORE>
-5.412

>  <RMSD_LB>
0.000

>  <RMSD_UB>
0.000

$$$$
CHEMBL1314652
 OpenBabel10172500383D

 19 19  0  0  1  0  0  0  0  0999 V2000
  147.8190  139.9200  152.9640 C   0  0  0  0  0  0  0  0  0  0  0  0
  146.8990  140.2010  151.9500 C   0  0  0  0  0  3  0  0  0  0  0  0
  146.1500  141.3890  151.9640 C   0  0  0  0  0  0  0  0  0  0  0  0
  146.2940  142.2730  153.0420 C   0  0  0  0  0  3  0  0  0  0  0  0
  147.2010  141.9950  154.0670 C   0  0  0  0  0  3  0  0  0  0  0  0
  147.9560  140.8230  154.0230 C   0  0  0  0  0  0  0  0  0  0  0  0
  147.8720  137.5540  152.9430 C   0  0  0  0  0  1  0  0  0  0  0  0
  148.5840  138.7850  153.0090 O   0  0  0  0  0  0  0  0  0  0  0  0
  148.8590  140.5540  155.0160 O   0  0  0  0  0  0  0  0  0  0  0  0
  149.0610  141.2090  155.6550 H   0  0  0  0  0  0  0  0  0  0  0  0
  145.2130  141.6950  150.8180 C   0  0  0  0  0  2  0  0  0  0  0  0
  144.7560  140.4690  150.0060 C   0  0  2  0  0  3  0  0  0  0  0  0
  145.0510  140.7340  148.5690 N   0  0  0  0  0  4  0  0  0  0  0  0
  144.2480  140.4630  148.0010 H   0  0  0  0  0  0  0  0  0  0  0  0
  145.8680  140.1940  148.2830 H   0  0  0  0  0  0  0  0  0  0  0  0
  145.2390  141.7280  148.4400 H   0  0  0  0  0  0  0  0  0  0  0  0
  143.2490  140.1560  150.1510 C   0  0  0  0  0  0  0  0  0  0  0  0
  142.4390  140.3080  149.2470 O   0  0  0  0  0  0  0  0  0  0  0  0
  142.8770  139.6260  151.3400 O   0  0  0  0  0  1  0  0  0  0  0  0
  1  8  1  0  0  0  0
  1  6  1  0  0  0  0
  2  3  1  0  0  0  0
  2  1  2  0  0  0  0
  3  4  2  0  0  0  0
  4  5  1  0  0  0  0
  6  5  2  0  0  0  0
  6  9  1  0  0  0  0
  7  8  1  0  0  0  0
  9 10  1  0  0  0  0
 11  3  1  0  0  0  0
 12 17  1  0  0  0  0
 12 11  1  1  0  0  0
 13 12  1  0  0  0  0
 14 13  1  0  0  0  0
 15 13  1  0  0  0  0
 16 13  1  0  0  0  0
 17 19  1  0  0  0  0
 18 17  2  0  0  0  0
M  END
>  <MODEL>
2

>  <REMARK>
 VINA RESULT:    -5.340      9.995     12.205
 INTER + INTRA:          -7.159
 INTER:                  -6.850
 INTRA:                  -0.308
 UNBOUND:                -0.258
  Name = CHEMBL1314652
  7 active torsions:
  status: ('A' for Active; 'I' for Inactive)
    1  A    between atoms: C_1  and  O_2
    2  A    between atoms: O_2  and  C_3
    3  A    between atoms: C_5  and  C_6
    4  A    between atoms: C_6  and  CA_7
    5  A    between atoms: CA_7  and  N_8
    6  A    between atoms: CA_7  and  C_9
    7  A    between atoms: C_14  and  O_15
                            x       y       z     vdW  Elec       q    Type
                         _______ _______ _______ _____ _____    ______ ____

>  <TORSDO>
F 6

>  <SCORE>
-5.340

>  <RMSD_LB>
9.995

>  <RMSD_UB>
12.205

$$$$
CHEMBL1314652
 OpenBabel10172500383D

 19 19  0  0  1  0  0  0  0  0999 V2000
  146.6960  140.4100  150.1310 C   0  0  0  0  0  0  0  0  0  0  0  0
  146.6760  140.1820  151.5100 C   0  0  0  0  0  3  0  0  0  0  0  0
  146.2720  141.1890  152.4030 C   0  0  0  0  0  0  0  0  0  0  0  0
  145.9370  142.4530  151.8990 C   0  0  0  0  0  3  0  0  0  0  0  0
  145.9660  142.6950  150.5240 C   0  0  0  0  0  3  0  0  0  0  0  0
  146.3450  141.6760  149.6500 C   0  0  0  0  0  0  0  0  0  0  0  0
  146.1420  138.4270  148.9670 C   0  0  0  0  0  1  0  0  0  0  0  0
  147.0750  139.4740  149.2070 O   0  0  0  0  0  0  0  0  0  0  0  0
  146.3580  141.9030  148.3000 O   0  0  0  0  0  0  0  0  0  0  0  0
  146.7930  141.3020  147.7280 H   0  0  0  0  0  0  0  0  0  0  0  0
  146.1970  140.8890  153.8830 C   0  0  0  0  0  2  0  0  0  0  0  0
  145.3510  139.6570  154.2540 C   0  0  2  0  0  3  0  0  0  0  0  0
  144.3060  140.0930  155.2240 N   0  0  0  0  0  4  0  0  0  0  0  0
  144.4980  139.6830  156.1380 H   0  0  0  0  0  0  0  0  0  0  0  0
  143.3900  139.7860  154.8980 H   0  0  0  0  0  0  0  0  0  0  0  0
  144.3170  141.1100  155.2990 H   0  0  0  0  0  0  0  0  0  0  0  0
  146.1710  138.5120  154.8930 C   0  0  0  0  0  0  0  0  0  0  0  0
  146.9310  138.6740  155.8380 O   0  0  0  0  0  1  0  0  0  0  0  0
  145.9440  137.2790  154.3830 O   0  0  0  0  0  0  0  0  0  0  0  0
  1  2  1  0  0  0  0
  2  3  2  0  0  0  0
  3 11  1  0  0  0  0
  4  3  1  0  0  0  0
  5  4  2  0  0  0  0
  6  1  2  0  0  0  0
  6  5  1  0  0  0  0
  7  8  1  0  0  0  0
  8  1  1  0  0  0  0
  9  6  1  0  0  0  0
 10  9  1  0  0  0  0
 12 11  1  1  0  0  0
 12 17  1  0  0  0  0
 12 13  1  0  0  0  0
 13 16  1  0  0  0  0
 13 14  1  0  0  0  0
 15 13  1  0  0  0  0
 17 18  1  0  0  0  0
 19 17  2  0  0  0  0
M  END
>  <MODEL>
3

>  <REMARK>
 VINA RESULT:    -5.320     10.084     11.648
 INTER + INTRA:          -7.133
 INTER:                  -6.866
 INTRA:                  -0.267
 UNBOUND:                -0.258
  Name = CHEMBL1314652
  7 active torsions:
  status: ('A' for Active; 'I' for Inactive)
    1  A    between atoms: C_1  and  O_2
    2  A    between atoms: O_2  and  C_3
    3  A    between atoms: C_5  and  C_6
    4  A    between atoms: C_6  and  CA_7
    5  A    between atoms: CA_7  and  N_8
    6  A    between atoms: CA_7  and  C_9
    7  A    between atoms: C_14  and  O_15
                            x       y       z     vdW  Elec       q    Type
                         _______ _______ _______ _____ _____    ______ ____

>  <TORSDO>
F 6

>  <SCORE>
-5.320

>  <RMSD_LB>
10.084

>  <RMSD_UB>
11.648

$$$$
CHEMBL1314652
 OpenBabel10172500383D

 19 19  0  0  1  0  0  0  0  0999 V2000
  135.0300  133.7940  147.6200 C   0  0  0  0  0  0  0  0  0  0  0  0
  135.3150  134.0020  148.9720 C   0  0  0  0  0  3  0  0  0  0  0  0
  134.3280  133.8160  149.9540 C   0  0  0  0  0  0  0  0  0  0  0  0
  133.0290  133.4690  149.5590 C   0  0  0  0  0  3  0  0  0  0  0  0
  132.7320  133.2720  148.2090 C   0  0  0  0  0  3  0  0  0  0  0  0
  133.7300  133.4350  147.2490 C   0  0  0  0  0  0  0  0  0  0  0  0
  136.3250  135.2950  146.3280 C   0  0  0  0  0  1  0  0  0  0  0  0
  135.9450  133.9540  146.6130 O   0  0  0  0  0  0  0  0  0  0  0  0
  133.4480  133.2260  145.9270 O   0  0  0  0  0  0  0  0  0  0  0  0
  133.0150  132.4400  145.6580 H   0  0  0  0  0  0  0  0  0  0  0  0
  134.6860  133.9830  151.4140 C   0  0  0  0  0  2  0  0  0  0  0  0
  133.6820  134.8090  152.2390 C   0  0  2  0  0  3  0  0  0  0  0  0
  133.9150  136.2500  151.9370 N   0  0  0  0  0  4  0  0  0  0  0  0
  134.7900  136.3520  151.4230 H   0  0  0  0  0  0  0  0  0  0  0  0
  133.9690  136.7760  152.8080 H   0  0  0  0  0  0  0  0  0  0  0  0
  133.1450  136.6060  151.3710 H   0  0  0  0  0  0  0  0  0  0  0  0
  133.8130  134.5970  153.7660 C   0  0  0  0  0  0  0  0  0  0  0  0
  133.5240  135.4530  154.5920 O   0  0  0  0  0  1  0  0  0  0  0  0
  134.2080  133.3610  154.1500 O   0  0  0  0  0  0  0  0  0  0  0  0
  1  2  1  0  0  0  0
  2  3  2  0  0  0  0
  3 11  1  0  0  0  0
  4  3  1  0  0  0  0
  5  4  2  0  0  0  0
  6  1  2  0  0  0  0
  6  5  1  0  0  0  0
  7  8  1  0  0  0  0
  8  1  1  0  0  0  0
  9  6  1  0  0  0  0
 10  9  1  0  0  0  0
 12 11  1  6  0  0  0
 12 17  1  0  0  0  0
 13 12  1  0  0  0  0
 13 15  1  0  0  0  0
 14 13  1  0  0  0  0
 16 13  1  0  0  0  0
 17 19  2  0  0  0  0
 17 18  1  0  0  0  0
M  END
>  <MODEL>
4

>  <REMARK>
 VINA RESULT:    -5.312      4.738      6.660
 INTER + INTRA:          -7.122
 INTER:                  -6.856
 INTRA:                  -0.266
 UNBOUND:                -0.258
  Name = CHEMBL1314652
  7 active torsions:
  status: ('A' for Active; 'I' for Inactive)
    1  A    between atoms: C_1  and  O_2
    2  A    between atoms: O_2  and  C_3
    3  A    between atoms: C_5  and  C_6
    4  A    between atoms: C_6  and  CA_7
    5  A    between atoms: CA_7  and  N_8
    6  A    between atoms: CA_7  and  C_9
    7  A    between atoms: C_14  and  O_15
                            x       y       z     vdW  Elec       q    Type
                         _______ _______ _______ _____ _____    ______ ____

>  <TORSDO>
F 6

>  <SCORE>
-5.312

>  <RMSD_LB>
4.738

>  <RMSD_UB>
6.660

$$$$
CHEMBL1314652
 OpenBabel10172500383D

 19 19  0  0  1  0  0  0  0  0999 V2000
  134.0320  133.3980  148.9240 C   0  0  0  0  0  0  0  0  0  0  0  0
  134.8480  133.7250  150.0100 C   0  0  0  0  0  3  0  0  0  0  0  0
  134.4830  134.7440  150.9060 C   0  0  0  0  0  0  0  0  0  0  0  0
  133.3100  135.4730  150.6690 C   0  0  0  0  0  3  0  0  0  0  0  0
  132.4950  135.1620  149.5780 C   0  0  0  0  0  3  0  0  0  0  0  0
  132.8590  134.1300  148.7140 C   0  0  0  0  0  0  0  0  0  0  0  0
  135.4480  132.6610  147.1770 C   0  0  0  0  0  1  0  0  0  0  0  0
  134.3250  132.4160  148.0160 O   0  0  0  0  0  0  0  0  0  0  0  0
  132.0540  133.8110  147.6540 O   0  0  0  0  0  0  0  0  0  0  0  0
  131.7150  134.4880  147.1020 H   0  0  0  0  0  0  0  0  0  0  0  0
  135.3540  135.0270  152.1100 C   0  0  0  0  0  2  0  0  0  0  0  0
  134.8310  134.4550  153.4400 C   0  0  2  0  0  3  0  0  0  0  0  0
  133.8720  133.3580  153.1220 N   0  0  0  0  0  4  0  0  0  0  0  0
  134.1450  132.9110  152.2480 H   0  0  0  0  0  0  0  0  0  0  0  0
  132.9330  133.7440  153.0290 H   0  0  0  0  0  0  0  0  0  0  0  0
  133.8840  132.6700  153.8750 H   0  0  0  0  0  0  0  0  0  0  0  0
  134.1100  135.5000  154.3230 C   0  0  0  0  0  0  0  0  0  0  0  0
  133.9600  136.6700  153.9970 O   0  0  0  0  0  0  0  0  0  0  0  0
  133.5810  135.0230  155.4740 O   0  0  0  0  0  1  0  0  0  0  0  0
  1  2  1  0  0  0  0
  2  3  2  0  0  0  0
  3 11  1  0  0  0  0
  4  3  1  0  0  0  0
  5  4  2  0  0  0  0
  6  1  2  0  0  0  0
  6  5  1  0  0  0  0
  7  8  1  0  0  0  0
  8  1  1  0  0  0  0
  9  6  1  0  0  0  0
 10  9  1  0  0  0  0
 12 11  1  6  0  0  0
 12 17  1  0  0  0  0
 13 12  1  0  0  0  0
 13 16  1  0  0  0  0
 14 13  1  0  0  0  0
 15 13  1  0  0  0  0
 17 19  1  0  0  0  0
 18 17  2  0  0  0  0
M  END
>  <MODEL>
5

>  <REMARK>
 VINA RESULT:    -5.132      4.284      5.761
 INTER + INTRA:          -6.891
 INTER:                  -6.838
 INTRA:                  -0.052
 UNBOUND:                -0.258
  Name = CHEMBL1314652
  7 active torsions:
  status: ('A' for Active; 'I' for Inactive)
    1  A    between atoms: C_1  and  O_2
    2  A    between atoms: O_2  and  C_3
    3  A    between atoms: C_5  and  C_6
    4  A    between atoms: C_6  and  CA_7
    5  A    between atoms: CA_7  and  N_8
    6  A    between atoms: CA_7  and  C_9
    7  A    between atoms: C_14  and  O_15
                            x       y       z     vdW  Elec       q    Type
                         _______ _______ _______ _____ _____    ______ ____

>  <TORSDO>
F 6

>  <SCORE>
-5.132

>  <RMSD_LB>
4.284

>  <RMSD_UB>
5.761

$$$$
CHEMBL1314652
 OpenBabel10172500383D

 19 19  0  0  1  0  0  0  0  0999 V2000
  147.7740  139.8320  153.7210 C   0  0  0  0  0  0  0  0  0  0  0  0
  147.2520  139.5260  152.4610 C   0  0  0  0  0  3  0  0  0  0  0  0
  147.4720  140.3740  151.3640 C   0  0  0  0  0  0  0  0  0  0  0  0
  148.1800  141.5690  151.5550 C   0  0  0  0  0  3  0  0  0  0  0  0
  148.6940  141.8900  152.8140 C   0  0  0  0  0  3  0  0  0  0  0  0
  148.4880  141.0230  153.8870 C   0  0  0  0  0  0  0  0  0  0  0  0
  148.0920  137.7170  154.7340 C   0  0  0  0  0  1  0  0  0  0  0  0
  147.6010  139.0490  154.8310 O   0  0  0  0  0  0  0  0  0  0  0  0
  149.0050  141.3250  155.1170 O   0  0  0  0  0  0  0  0  0  0  0  0
  149.3520  140.6450  155.6600 H   0  0  0  0  0  0  0  0  0  0  0  0
  146.9520  139.9800  150.0000 C   0  0  0  0  0  2  0  0  0  0  0  0
  146.2720  141.1140  149.2100 C   0  0  2  0  0  3  0  0  0  0  0  0
  144.8570  141.2090  149.6700 N   0  0  0  0  0  4  0  0  0  0  0  0
  144.7230  140.6090  150.4830 H   0  0  0  0  0  0  0  0  0  0  0  0
  144.2350  140.9120  148.9190 H   0  0  0  0  0  0  0  0  0  0  0  0
  144.6480  142.1750  149.9230 H   0  0  0  0  0  0  0  0  0  0  0  0
  146.2800  140.8950  147.6790 C   0  0  0  0  0  0  0  0  0  0  0  0
  145.9430  139.8460  147.1470 O   0  0  0  0  0  1  0  0  0  0  0  0
  146.6230  141.9750  146.9390 O   0  0  0  0  0  0  0  0  0  0  0  0
  1  6  1  0  0  0  0
  1  8  1  0  0  0  0
  2  1  2  0  0  0  0
  3  4  2  0  0  0  0
  3  2  1  0  0  0  0
  4  5  1  0  0  0  0
  5  6  2  0  0  0  0
  6  9  1  0  0  0  0
  7  8  1  0  0  0  0
  9 10  1  0  0  0  0
 11  3  1  0  0  0  0
 12 13  1  0  0  0  0
 12 11  1  1  0  0  0
 13 16  1  0  0  0  0
 13 14  1  0  0  0  0
 15 13  1  0  0  0  0
 17 12  1  0  0  0  0
 18 17  1  0  0  0  0
 19 17  2  0  0  0  0
M  END
>  <MODEL>
6

>  <REMARK>
 VINA RESULT:    -5.091     12.007     13.450
 INTER + INTRA:          -6.837
 INTER:                  -6.581
 INTRA:                  -0.256
 UNBOUND:                -0.258
  Name = CHEMBL1314652
  7 active torsions:
  status: ('A' for Active; 'I' for Inactive)
    1  A    between atoms: C_1  and  O_2
    2  A    between atoms: O_2  and  C_3
    3  A    between atoms: C_5  and  C_6
    4  A    between atoms: C_6  and  CA_7
    5  A    between atoms: CA_7  and  N_8
    6  A    between atoms: CA_7  and  C_9
    7  A    between atoms: C_14  and  O_15
                            x       y       z     vdW  Elec       q    Type
                         _______ _______ _______ _____ _____    ______ ____

>  <TORSDO>
F 6

>  <SCORE>
-5.091

>  <RMSD_LB>
12.007

>  <RMSD_UB>
13.450

$$$$
CHEMBL1314652
 OpenBabel10172500383D

 19 19  0  0  1  0  0  0  0  0999 V2000
  136.1320  135.9150  156.0710 C   0  0  0  0  0  0  0  0  0  0  0  0
  137.1100  136.6400  155.3850 C   0  0  0  0  0  3  0  0  0  0  0  0
  137.0910  136.7310  153.9840 C   0  0  0  0  0  0  0  0  0  0  0  0
  136.1060  136.0360  153.2690 C   0  0  0  0  0  3  0  0  0  0  0  0
  135.1320  135.2980  153.9450 C   0  0  0  0  0  3  0  0  0  0  0  0
  135.1510  135.2400  155.3380 C   0  0  0  0  0  0  0  0  0  0  0  0
  136.5500  136.9130  158.1760 C   0  0  0  0  0  1  0  0  0  0  0  0
  136.0900  135.7890  157.4340 O   0  0  0  0  0  0  0  0  0  0  0  0
  134.1880  134.5320  156.0050 O   0  0  0  0  0  0  0  0  0  0  0  0
  134.2990  134.3320  156.9140 H   0  0  0  0  0  0  0  0  0  0  0  0
  138.1230  137.5790  153.2760 C   0  0  0  0  0  2  0  0  0  0  0  0
  138.8060  138.6420  154.1560 C   0  0  2  0  0  3  0  0  0  0  0  0
  138.8220  139.9250  153.3980 N   0  0  0  0  0  4  0  0  0  0  0  0
  139.5930  140.5060  153.7280 H   0  0  0  0  0  0  0  0  0  0  0  0
  137.9400  140.4160  153.5400 H   0  0  0  0  0  0  0  0  0  0  0  0
  138.9450  139.7290  152.4040 H   0  0  0  0  0  0  0  0  0  0  0  0
  140.2580  138.2820  154.5490 C   0  0  0  0  0  0  0  0  0  0  0  0
  141.0840  137.8520  153.7550 O   0  0  0  0  0  0  0  0  0  0  0  0
  140.5930  138.5390  155.8350 O   0  0  0  0  0  1  0  0  0  0  0  0
  1  8  1  0  0  0  0
  2  1  1  0  0  0  0
  3  2  2  0  0  0  0
  4  5  2  0  0  0  0
  4  3  1  0  0  0  0
  5  6  1  0  0  0  0
  6  9  1  0  0  0  0
  6  1  2  0  0  0  0
  8  7  1  0  0  0  0
  9 10  1  0  0  0  0
 11  3  1  0  0  0  0
 12 11  1  6  0  0  0
 12 17  1  0  0  0  0
 13 15  1  0  0  0  0
 13 14  1  0  0  0  0
 13 12  1  0  0  0  0
 16 13  1  0  0  0  0
 17 19  1  0  0  0  0
 18 17  2  0  0  0  0
M  END
>  <MODEL>
7

>  <REMARK>
 VINA RESULT:    -5.050      2.643      3.765
 INTER + INTRA:          -6.784
 INTER:                  -6.526
 INTRA:                  -0.258
 UNBOUND:                -0.258
  Name = CHEMBL1314652
  7 active torsions:
  status: ('A' for Active; 'I' for Inactive)
    1  A    between atoms: C_1  and  O_2
    2  A    between atoms: O_2  and  C_3
    3  A    between atoms: C_5  and  C_6
    4  A    between atoms: C_6  and  CA_7
    5  A    between atoms: CA_7  and  N_8
    6  A    between atoms: CA_7  and  C_9
    7  A    between atoms: C_14  and  O_15
                            x       y       z     vdW  Elec       q    Type
                         _______ _______ _______ _____ _____    ______ ____

>  <TORSDO>
F 6

>  <SCORE>
-5.050

>  <RMSD_LB>
2.643

>  <RMSD_UB>
3.765

$$$$
CHEMBL1314652
 OpenBabel10172500383D

 19 19  0  0  1  0  0  0  0  0999 V2000
  133.5860  135.5780  148.8660 C   0  0  0  0  0  0  0  0  0  0  0  0
  134.2350  134.8850  147.8400 C   0  0  0  0  0  3  0  0  0  0  0  0
  134.1830  135.3430  146.5140 C   0  0  0  0  0  0  0  0  0  0  0  0
  133.4230  136.4820  146.2150 C   0  0  0  0  0  3  0  0  0  0  0  0
  132.7600  137.1740  147.2300 C   0  0  0  0  0  3  0  0  0  0  0  0
  132.8440  136.7200  148.5460 C   0  0  0  0  0  0  0  0  0  0  0  0
  132.7800  134.0720  150.5030 C   0  0  0  0  0  1  0  0  0  0  0  0
  133.5990  135.1890  150.1780 O   0  0  0  0  0  0  0  0  0  0  0  0
  132.2100  137.4040  149.5470 O   0  0  0  0  0  0  0  0  0  0  0  0
  132.3230  137.1420  150.4390 H   0  0  0  0  0  0  0  0  0  0  0  0
  134.9530  134.6090  145.4390 C   0  0  0  0  0  2  0  0  0  0  0  0
  135.8610  133.4740  145.9490 C   0  0  2  0  0  3  0  0  0  0  0  0
  137.2770  133.8960  145.7520 N   0  0  0  0  0  4  0  0  0  0  0  0
  137.3120  134.9010  145.5840 H   0  0  0  0  0  0  0  0  0  0  0  0
  137.6700  133.4020  144.9510 H   0  0  0  0  0  0  0  0  0  0  0  0
  137.8160  133.6720  146.5880 H   0  0  0  0  0  0  0  0  0  0  0  0
  135.6400  132.1280  145.2200 C   0  0  0  0  0  0  0  0  0  0  0  0
  136.2100  131.0920  145.5320 O   0  0  0  0  0  1  0  0  0  0  0  0
  134.7080  132.1440  144.2390 O   0  0  0  0  0  0  0  0  0  0  0  0
  1  8  1  0  0  0  0
  2  1  2  0  0  0  0
  3  2  1  0  0  0  0
  4  3  2  0  0  0  0
  4  5  1  0  0  0  0
  5  6  2  0  0  0  0
  6  1  1  0  0  0  0
  6  9  1  0  0  0  0
  8  7  1  0  0  0  0
  9 10  1  0  0  0  0
 11  3  1  0  0  0  0
 12 11  1  6  0  0  0
 13 12  1  0  0  0  0
 13 16  1  0  0  0  0
 14 13  1  0  0  0  0
 15 13  1  0  0  0  0
 17 18  1  0  0  0  0
 17 12  1  0  0  0  0
 19 17  2  0  0  0  0
M  END
>  <MODEL>
8

>  <REMARK>
 VINA RESULT:    -5.015      6.983      9.741
 INTER + INTRA:          -6.739
 INTER:                  -6.447
 INTRA:                  -0.292
 UNBOUND:                -0.258
  Name = CHEMBL1314652
  7 active torsions:
  status: ('A' for Active; 'I' for Inactive)
    1  A    between atoms: C_1  and  O_2
    2  A    between atoms: O_2  and  C_3
    3  A    between atoms: C_5  and  C_6
    4  A    between atoms: C_6  and  CA_7
    5  A    between atoms: CA_7  and  N_8
    6  A    between atoms: CA_7  and  C_9
    7  A    between atoms: C_14  and  O_15
                            x       y       z     vdW  Elec       q    Type
                         _______ _______ _______ _____ _____    ______ ____

>  <TORSDO>
F 6

>  <SCORE>
-5.015

>  <RMSD_LB>
6.983

>  <RMSD_UB>
9.741

$$$$
CHEMBL1314652
 OpenBabel10172500383D

 19 19  0  0  1  0  0  0  0  0999 V2000
  146.4590  139.5540  149.7060 C   0  0  0  0  0  0  0  0  0  0  0  0
  146.7180  140.2040  150.9150 C   0  0  0  0  0  3  0  0  0  0  0  0
  146.7990  141.6050  150.9790 C   0  0  0  0  0  0  0  0  0  0  0  0
  146.6700  142.3500  149.7990 C   0  0  0  0  0  3  0  0  0  0  0  0
  146.4240  141.7090  148.5830 C   0  0  0  0  0  3  0  0  0  0  0  0
  146.3210  140.3190  148.5430 C   0  0  0  0  0  0  0  0  0  0  0  0
  146.9760  137.4270  150.6030 C   0  0  0  0  0  1  0  0  0  0  0  0
  146.3630  138.1940  149.5740 O   0  0  0  0  0  0  0  0  0  0  0  0
  146.0620  139.6870  147.3560 O   0  0  0  0  0  0  0  0  0  0  0  0
  145.9670  140.1870  146.5700 H   0  0  0  0  0  0  0  0  0  0  0  0
  147.0120  142.2810  152.3150 C   0  0  0  0  0  2  0  0  0  0  0  0
  146.9600  141.3420  153.5340 C   0  0  2  0  0  3  0  0  0  0  0  0
  146.0180  141.9320  154.5270 N   0  0  0  0  0  4  0  0  0  0  0  0
  145.0960  142.0330  154.1030 H   0  0  0  0  0  0  0  0  0  0  0  0
  146.3600  142.8470  154.8200 H   0  0  0  0  0  0  0  0  0  0  0  0
  145.9530  141.3180  155.3390 H   0  0  0  0  0  0  0  0  0  0  0  0
  148.3320  141.1370  154.2180 C   0  0  0  0  0  0  0  0  0  0  0  0
  148.8740  140.0450  154.3270 O   0  0  0  0  0  0  0  0  0  0  0  0
  148.9480  142.2670  154.6370 O   0  0  0  0  0  1  0  0  0  0  0  0
  1  2  1  0  0  0  0
  2  3  2  0  0  0  0
  3 11  1  0  0  0  0
  4  3  1  0  0  0  0
  5  4  2  0  0  0  0
  6  5  1  0  0  0  0
  6  1  2  0  0  0  0
  8  1  1  0  0  0  0
  8  7  1  0  0  0  0
  9  6  1  0  0  0  0
 10  9  1  0  0  0  0
 12 11  1  6  0  0  0
 12 17  1  0  0  0  0
 12 13  1  0  0  0  0
 13 15  1  0  0  0  0
 13 16  1  0  0  0  0
 14 13  1  0  0  0  0
 17 18  2  0  0  0  0
 17 19  1  0  0  0  0
M  END
>  <MODEL>
9

>  <REMARK>
 VINA RESULT:    -4.978     11.787     12.538
 INTER + INTRA:          -6.691
 INTER:                  -6.411
 INTRA:                  -0.280
 UNBOUND:                -0.258
  Name = CHEMBL1314652
  7 active torsions:
  status: ('A' for Active; 'I' for Inactive)
    1  A    between atoms: C_1  and  O_2
    2  A    between atoms: O_2  and  C_3
    3  A    between atoms: C_5  and  C_6
    4  A    between atoms: C_6  and  CA_7
    5  A    between atoms: CA_7  and  N_8
    6  A    between atoms: CA_7  and  C_9
    7  A    between atoms: C_14  and  O_15
                            x       y       z     vdW  Elec       q    Type
                         _______ _______ _______ _____ _____    ______ ____

>  <TORSDO>
F 6

>  <SCORE>
-4.978

>  <RMSD_LB>
11.787

>  <RMSD_UB>
12.538

$$$$
